@<TRIPOS>MOLECULE
tmp/2yqhA00.pdb
 132 126 0 0 0
SMALL
GASTEIGER

@<TRIPOS>ATOM
      1  N          6.6320   -7.8570   24.3020 N.3   217  ASN217     -0.1240
      2  CA         5.7750   -6.7110   24.0630 C.3   217  ASN217      0.1653
      3  C          4.4980   -7.1210   23.3100 C.2   217  ASN217      0.2266
      4  O          3.4920   -6.4110   23.3520 O.2   217  ASN217     -0.2867
      5  CB         6.5360   -5.5770   23.3390 C.3   217  ASN217      0.1155
      6  CG         7.1500   -6.0090   22.0050 C.2   217  ASN217      0.2627
      7  OD1        6.6200   -6.8730   21.3140 O.2   217  ASN217     -0.2716
      8  ND2        8.2670   -5.3870   21.6380 N.am  217  ASN217     -0.0877
      9  N          8.4870    2.2140   22.9880 N.3   245  CYS245     -0.1235
     10  CA         9.2540    1.5670   24.0420 C.3   245  CYS245      0.1677
     11  C          9.9750    2.6400   24.8380 C.2   245  CYS245      0.2270
     12  O         10.4900    3.6040   24.2780 O.2   245  CYS245     -0.2867
     13  CB        10.2690    0.5880   23.4190 C.3   245  CYS245      0.0956
     14  SG        11.3000   -0.3700   24.5980 S.3   245  CYS245     -0.0801
     15  N         12.8550    2.7050   26.2460 N.3   247  ASP247     -0.1239
     16  CA        14.3010    2.8630   26.0900 C.3   247  ASP247      0.1674
     17  C         14.8040    3.8410   25.0320 C.2   247  ASP247      0.2266
     18  O         15.9980    4.1000   24.9580 O.2   247  ASP247     -0.2867
     19  CB        15.0020    1.4890   25.9250 C.3   247  ASP247      0.1410
     20  CG        14.7160    0.8110   24.5920 C.2   247  ASP247      0.3668
     21  OD1       14.4040    1.5070   23.6010 O.co2 247  ASP247     -0.2456
     22  OD2       14.8390   -0.4350   24.5290 O.co2 247  ASP247     -0.2456
     23  N         21.2750   -4.9460   15.5430 N.3   282  SER282     -0.1202
     24  CA        20.2170   -5.7970   16.0790 C.3   282  SER282      0.2020
     25  C         18.9410   -4.9820   16.0260 C.2   282  SER282      0.2619
     26  O         18.4820   -4.4240   17.0270 O.2   282  SER282     -0.2717
     27  CB        20.5230   -6.1870   17.5200 C.3   282  SER282      0.2103
     28  OG        21.5920   -7.1040   17.5640 O.3   282  SER282     -0.2182
     29  N         18.3620   -4.9430   14.8380 N.am  283  VAL283     -0.1965
     30  CA        17.1780   -4.1610   14.5860 C.3   283  VAL283      0.1727
     31  C         16.2260   -4.9680   13.6620 C.2   283  VAL283      0.2616
     32  O         16.6780   -5.6120   12.7100 O.2   283  VAL283     -0.2715
     33  CB        17.6670   -2.8330   13.9310 C.3   283  VAL283      0.0290
     34  CG1       17.7500   -2.9720   12.4230 C.3   283  VAL283      0.0023
     35  CG2       16.8560   -1.6780   14.3950 C.3   283  VAL283      0.0023
     36  N         14.9250   -4.9610   13.9570 N.am  284  GLY284     -0.1955
     37  CA        13.9820   -5.6660   13.0890 C.3   284  GLY284      0.1869
     38  C         13.8620   -4.8910   11.7780 C.2   284  GLY284      0.2309
     39  O         14.1760   -3.6920   11.7490 O.2   284  GLY284     -0.2863
     40  N         12.4980  -10.0230   12.6670 N.3   299  GLU299     -0.1231
     41  CA        13.3450   -9.7040   13.8170 C.3   299  GLU299      0.1699
     42  C         14.8040   -9.9940   13.4910 C.2   299  GLU299      0.2592
     43  O         15.0940  -10.8000   12.6060 O.2   299  GLU299     -0.2718
     44  CB        12.8900  -10.5140   15.0370 C.3   299  GLU299      0.0402
     45  CG        13.4490  -10.0660   16.3990 C.3   299  GLU299      0.1161
     46  CD        13.1590   -8.6120   16.7350 C.2   299  GLU299      0.3649
     47  OE1       13.1340   -8.2570   17.9330 O.co2 299  GLU299     -0.2457
     48  OE2       12.9810   -7.8070   15.8070 O.co2 299  GLU299     -0.2457
     49  N         15.7150   -9.3290   14.1960 N.am  300  TYR300     -0.1976
     50  CA        17.1550   -9.4870   13.9520 C.3   300  TYR300      0.1639
     51  C         17.7020  -10.8440   14.3640 C.2   300  TYR300      0.2290
     52  O         18.7420  -11.2800   13.8800 O.2   300  TYR300     -0.2864
     53  CB        17.9340   -8.3920   14.6860 C.3   300  TYR300      0.0560
     54  CG        17.6910   -8.3650   16.1880 C.ar  300  TYR300     -0.0198
     55  CD1       18.5130   -9.0840   17.0750 C.ar  300  TYR300     -0.0009
     56  CD2       16.6460   -7.6170   16.7190 C.ar  300  TYR300     -0.0009
     57  CE1       18.2930   -9.0460   18.4480 C.ar  300  TYR300      0.0417
     58  CE2       16.4150   -7.5740   18.0840 C.ar  300  TYR300      0.0417
     59  CZ        17.2380   -8.2860   18.9540 C.ar  300  TYR300      0.1957
     60  OH        16.9890   -8.2140   20.3210 O.3   300  TYR300     -0.2866
     61  N         13.1530   -1.0880   12.1880 N.3   325  ASN325     -0.1240
     62  CA        12.0580   -0.9200   13.1240 C.3   325  ASN325      0.1653
     63  C         12.4900   -0.2340   14.4090 C.2   325  ASN325      0.2266
     64  O         13.3850   -0.7400   15.1010 O.2   325  ASN325     -0.2867
     65  CB        11.4890   -2.2910   13.5000 C.3   325  ASN325      0.1155
     66  CG        10.4480   -2.1940   14.5730 C.2   325  ASN325      0.2627
     67  OD1        9.6930   -1.2180   14.6150 O.2   325  ASN325     -0.2716
     68  ND2       10.3800   -3.2020   15.4480 N.am  325  ASN325     -0.0877
     69  N         10.3400    0.3870   17.0190 N.3   327  VAL327     -0.1245
     70  CA         9.2360    0.1610   17.9470 C.3   327  VAL327      0.1561
     71  C          8.4150    1.4430   18.1360 C.2   327  VAL327      0.2260
     72  O          8.1230    1.8600   19.2640 O.2   327  VAL327     -0.2867
     73  CB         9.7490   -0.2980   19.3240 C.3   327  VAL327      0.0252
     74  CG1        8.6160   -1.0010   20.1160 C.3   327  VAL327      0.0019
     75  CG2       10.9550   -1.2130   19.1390 C.3   327  VAL327      0.0019
     76  N          5.7530  -11.1090   19.8830 N.3   379  PHE379     -0.1227
     77  CA         6.2370   -9.8290   19.3570 C.3   379  PHE379      0.1736
     78  C          5.0600   -8.9590   18.9170 C.2   379  PHE379      0.2595
     79  O          4.1900   -9.4110   18.1710 O.2   379  PHE379     -0.2718
     80  CB         7.1770  -10.0320   18.1560 C.3   379  PHE379      0.0547
     81  CG         8.4790  -10.7350   18.4790 C.ar  379  PHE379     -0.0202
     82  CD1        8.9530  -10.8300   19.7950 C.ar  379  PHE379     -0.0042
     83  CD2        9.2640  -11.2530   17.4480 C.ar  379  PHE379     -0.0042
     84  CE1       10.1930  -11.4300   20.0810 C.ar  379  PHE379     -0.0003
     85  CE2       10.5080  -11.8560   17.7220 C.ar  379  PHE379     -0.0003
     86  CZ        10.9710  -11.9430   19.0470 C.ar  379  PHE379     -0.0000
     87  N          5.0660   -7.7110   19.3650 N.am  380  ILE380     -0.1966
     88  CA         4.0210   -6.7280   19.0730 C.3   380  ILE380      0.1727
     89  C          3.6780   -6.6080   17.5730 C.2   380  ILE380      0.2616
     90  O          2.4990   -6.5040   17.2000 O.2   380  ILE380     -0.2715
     91  CB         4.4530   -5.3240   19.6210 C.3   380  ILE380      0.0290
     92  CG1        3.3030   -4.3060   19.5340 C.3   380  ILE380      0.0022
     93  CG2        5.6560   -4.8290   18.8530 C.3   380  ILE380      0.0023
     94  CD1        2.4350   -4.2430   20.7800 C.3   380  ILE380      0.0001
     95  N          4.6990   -6.6500   16.7200 N.am  381  PHE381     -0.1974
     96  CA         4.4940   -6.5060   15.2860 C.3   381  PHE381      0.1639
     97  C          4.0270   -7.7530   14.5300 C.2   381  PHE381      0.2290
     98  O          3.7830   -7.6890   13.3110 O.2   381  PHE381     -0.2864
     99  CB         5.7710   -5.9520   14.6320 C.3   381  PHE381      0.0560
    100  CG         7.0160   -6.7330   14.9600 C.ar  381  PHE381     -0.0200
    101  CD1        7.1680   -8.0430   14.5250 C.ar  381  PHE381     -0.0042
    102  CD2        8.0380   -6.1490   15.7140 C.ar  381  PHE381     -0.0042
    103  CE1        8.3300   -8.7740   14.8380 C.ar  381  PHE381     -0.0003
    104  CE2        9.2000   -6.8570   16.0340 C.ar  381  PHE381     -0.0003
    105  CZ         9.3500   -8.1820   15.5930 C.ar  381  PHE381     -0.0000
    106  N         15.7140    8.3740   17.2310 N.3   403  PHE403     -0.1241
    107  CA        15.9840    7.0450   17.7270 C.3   403  PHE403      0.1605
    108  C         17.3790    6.8570   18.3080 C.2   403  PHE403      0.2264
    109  O         18.3730    6.9690   17.5910 O.2   403  PHE403     -0.2867
    110  CB        15.7480    6.0580   16.5770 C.3   403  PHE403      0.0534
    111  CG        16.0270    4.6230   16.9250 C.ar  403  PHE403     -0.0203
    112  CD1       15.3030    3.9800   17.9190 C.ar  403  PHE403     -0.0042
    113  CD2       17.0330    3.9230   16.2650 C.ar  403  PHE403     -0.0042
    114  CE1       15.5730    2.6630   18.2580 C.ar  403  PHE403     -0.0003
    115  CE2       17.3180    2.5980   16.5970 C.ar  403  PHE403     -0.0003
    116  CZ        16.5890    1.9670   17.5930 C.ar  403  PHE403     -0.0000
    117  N         18.3480    4.1910   21.3820 N.3   405  PRO405     -0.2116
    118  CA        17.9700    3.3070   22.4770 C.3   405  PRO405      0.1372
    119  C         19.0230    2.9930   23.5220 C.2   405  PRO405      0.2244
    120  O         20.2110    2.9610   23.2330 O.2   405  PRO405     -0.2868
    121  CB        17.4900    2.0530   21.7410 C.3   405  PRO405      0.0268
    122  CG        18.4450    1.9660   20.5820 C.3   405  PRO405      0.0207
    123  CD        18.6310    3.4320   20.1430 C.3   405  PRO405      0.0892
    124  N         20.1510    0.0920   25.4790 N.3   407  LYS407     -0.1245
    125  CA        20.0760   -1.3760   25.5120 C.3   407  LYS407      0.1561
    126  C         21.1500   -2.0520   26.3620 C.2   407  LYS407      0.2260
    127  O         20.8970   -3.0600   27.0210 O.2   407  LYS407     -0.2867
    128  CB        20.2280   -1.9580   24.0950 C.3   407  LYS407      0.0271
    129  CG        19.2490   -1.4550   23.0250 C.3   407  LYS407      0.0035
    130  CD        17.8530   -2.0270   23.1830 C.3   407  LYS407      0.0206
    131  CE        16.9450   -1.4880   22.0770 C.3   407  LYS407      0.1093
    132  NZ        15.4880   -1.7880   22.2870 N.3   407  LYS407     -0.1314
@<TRIPOS>BOND
     1    39    38    2
     2    38    37    1
     3    61    62    1
     4    34    33    1
     5    43    42    2
     6    40    41    1
     7    32    31    2
     8    37    36    1
     9    62    65    1
    10    62    63    1
    11    98    97    2
    12    42    41    1
    13    42    49   am
    14    65    66    1
    15    31    36   am
    16    31    30    1
    17    41    44    1
    18    52    51    2
    19    33    35    1
    20    33    30    1
    21    50    49    1
    22    50    51    1
    23    50    53    1
    24    63    64    2
    25   101   103   ar
    26   101   100   ar
    27    97    96    1
    28    66    67    2
    29    66    68   am
    30    30    29    1
    31    99   100    1
    32    99    96    1
    33    53    54    1
    34   103   105   ar
    35    29    25   am
    36   100   102   ar
    37    44    45    1
    38    96    95    1
    39    23    24    1
    40   105   104   ar
    41   102   104   ar
    42    48    46   ar
    43    25    24    1
    44    25    26    2
    45    24    27    1
    46    54    56   ar
    47    54    55   ar
    48   113   115   ar
    49   113   111   ar
    50    45    46    1
    51   110   111    1
    52   110   107    1
    53   115   116   ar
    54    56    58   ar
    55    95    89   am
    56    46    47   ar
    57   111   112   ar
    58    69    70    1
    59    55    57   ar
    60    90    89    2
    61   106   107    1
    62    83    85   ar
    63    83    81   ar
    64    27    28    1
    65    89    88    1
    66   109   108    2
    67   116   114   ar
    68    85    86   ar
    69   107   108    1
    70   112   114   ar
    71    70    71    1
    72    70    73    1
    73    58    59   ar
    74    71    72    2
    75    80    81    1
    76    80    77    1
    77    79    78    2
    78    57    59   ar
    79    81    82   ar
    80    93    91    1
    81    78    77    1
    82    78    87   am
    83    59    60    1
    84    86    84   ar
    85    88    87    1
    86    88    91    1
    87    75    73    1
    88    73    74    1
    89    77    76    1
    90    92    91    1
    91    92    94    1
    92    82    84   ar
    93   123   122    1
    94   123   117    1
    95   122   121    1
    96     7     6    2
    97   117   118    1
    98     8     6   am
    99   121   118    1
   100     6     5    1
   101   131   132    1
   102   131   130    1
   103   118   119    1
   104     9    10    1
   105   129   130    1
   106   129   128    1
   107   120   119    2
   108     3     4    2
   109     3     2    1
   110     5     2    1
   111    13    10    1
   112    13    14    1
   113    21    20   ar
   114    10    11    1
   115     2     1    1
   116   128   125    1
   117    12    11    2
   118    22    20   ar
   119    20    19    1
   120    18    17    2
   121    17    16    1
   122   124   125    1
   123   125   126    1
   124    19    16    1
   125    16    15    1
   126   126   127    2
