@<TRIPOS>MOLECULE
tmp/2yqsA00.pdb
 208 198 0 0 0
SMALL
GASTEIGER

@<TRIPOS>ATOM
      1  N          4.6060    3.1730   38.9610 N.3   100  MET100     -0.1230
      2  CA         5.9860    3.4730   38.5970 C.3   100  MET100      0.1702
      3  C          5.9740    4.1910   37.2480 C.2   100  MET100      0.2592
      4  O          5.6540    3.5930   36.2120 O.2   100  MET100     -0.2718
      5  CB         6.8020    2.1830   38.5000 C.3   100  MET100      0.0401
      6  CG         6.8000    1.3630   39.7860 C.3   100  MET100      0.0596
      7  SD         7.7940   -0.1490   39.6790 S.3   100  MET100     -0.1393
      8  CE         6.5810   -1.3210   39.1600 C.3   100  MET100      0.0692
      9  N          6.2900    5.4820   37.2710 N.am  101  ALA101     -0.1966
     10  CA         6.3190    6.2790   36.0520 C.3   101  ALA101      0.1728
     11  C          7.5630    7.1710   36.0380 C.2   101  ALA101      0.2617
     12  O          7.4900    8.3590   35.7240 O.2   101  ALA101     -0.2715
     13  CB         5.0420    7.1220   35.9470 C.3   101  ALA101      0.0334
     14  N          8.7020    6.5790   36.3960 N.am  102  GLY102     -0.1940
     15  CA         9.9620    7.3030   36.4210 C.3   102  GLY102      0.2014
     16  C         10.8080    6.9770   35.1990 C.2   102  GLY102      0.2639
     17  O         11.8560    7.5960   34.9690 O.2   102  GLY102     -0.2714
     18  N         10.3660    5.9930   34.4160 N.am  103  GLY103     -0.1954
     19  CA        11.0990    5.6250   33.2140 C.3   103  GLY103      0.1869
     20  C         10.9600    6.6840   32.1250 C.2   103  GLY103      0.2309
     21  O          9.9730    7.4320   32.0990 O.2   103  GLY103     -0.2863
     22  N         12.9270    3.7020   24.0510 N.3   107  ARG107     -0.1245
     23  CA        12.4920    2.9010   22.9090 C.3   107  ARG107      0.1563
     24  C         11.2990    3.5180   22.1780 C.2   107  ARG107      0.2260
     25  O         11.1550    3.3490   20.9660 O.2   107  ARG107     -0.2867
     26  CB        12.1190    1.4770   23.3510 C.3   107  ARG107      0.0307
     27  CG        13.2920    0.5240   23.5320 C.3   107  ARG107      0.0489
     28  CD        12.8360   -0.8320   24.0720 C.3   107  ARG107      0.2205
     29  NE        12.4040   -0.7480   25.4680 N.pl3 107  ARG107     -0.0865
     30  CZ        11.9340   -1.7720   26.1790 C.cat 107  ARG107      0.5346
     31  NH1       11.8250   -2.9780   25.6290 N.pl3 107  ARG107      0.1354
     32  NH2       11.5820   -1.5900   27.4490 N.pl3 107  ARG107      0.1354
     33  N          5.1230    7.3710   41.4590 N.3   159  MET159     -0.1245
     34  CA         6.5570    7.6170   41.5150 C.3   159  MET159      0.1570
     35  C          7.0660    8.1060   40.1640 C.2   159  MET159      0.2261
     36  O          7.0330    7.3880   39.1640 O.2   159  MET159     -0.2867
     37  CB         7.3150    6.3500   41.9090 C.3   159  MET159      0.0387
     38  CG         8.8280    6.5510   41.9910 C.3   159  MET159      0.0595
     39  SD         9.7450    5.0210   42.3260 S.3   159  MET159     -0.1393
     40  CE         9.9340    4.3900   40.6540 C.3   159  MET159      0.0692
     41  N         11.7710    9.3390   42.5950 N.3   190  GLN190     -0.1245
     42  CA        12.7370    8.2900   42.8930 C.3   190  GLN190      0.1566
     43  C         14.0960    9.0010   42.7530 C.2   190  GLN190      0.2260
     44  O         14.1770   10.0810   42.1720 O.2   190  GLN190     -0.2867
     45  CB        12.6340    7.1600   41.8640 C.3   190  GLN190      0.0367
     46  CG        13.1810    7.5310   40.5040 C.3   190  GLN190      0.0905
     47  CD        13.0890    6.3950   39.5080 C.2   190  GLN190      0.2608
     48  OE1       12.1580    6.3320   38.7200 O.2   190  GLN190     -0.2717
     49  NE2       14.0540    5.4840   39.5480 N.am  190  GLN190     -0.0878
     50  N         17.6540    8.0820   36.3160 N.3   215  PRO215     -0.2116
     51  CA        16.7940    7.4310   37.3090 C.3   215  PRO215      0.1372
     52  C         17.4580    6.1200   37.7360 C.2   215  PRO215      0.2244
     53  O         17.9270    5.3660   36.8930 O.2   215  PRO215     -0.2868
     54  CB        15.4970    7.2230   36.5400 C.3   215  PRO215      0.0268
     55  CG        15.4490    8.4600   35.6740 C.3   215  PRO215      0.0207
     56  CD        16.8730    8.5340   35.1500 C.3   215  PRO215      0.0892
     57  N         16.5680    3.1750   38.4250 N.3   217  GLY217     -0.1210
     58  CA        15.8590    1.9170   38.2140 C.3   217  GLY217      0.1956
     59  C         14.6020    1.8350   39.0650 C.2   217  GLY217      0.2611
     60  O         14.5370    2.4870   40.1030 O.2   217  GLY217     -0.2717
     61  N         13.5970    1.0580   38.6580 N.am  218  ASN218     -0.1974
     62  CA        12.3910    0.9860   39.4830 C.3   218  ASN218      0.1688
     63  C         12.6870    0.3690   40.8480 C.2   218  ASN218      0.2292
     64  O         11.8720    0.4520   41.7630 O.2   218  ASN218     -0.2864
     65  CB        11.2380    0.2370   38.7780 C.3   218  ASN218      0.1181
     66  CG        11.5940   -1.1840   38.3630 C.2   218  ASN218      0.2629
     67  OD1       12.4820   -1.8280   38.9350 O.2   218  ASN218     -0.2716
     68  ND2       10.8690   -1.6920   37.3660 N.am  218  ASN218     -0.0877
     69  N          3.2740   -1.1890   36.4360 N.3   246  CYS246     -0.1221
     70  CA         3.9580   -0.5020   35.3490 C.3   246  CYS246      0.1808
     71  C          3.0100    0.3940   34.5350 C.2   246  CYS246      0.2601
     72  O          1.9080   -0.0210   34.1650 O.2   246  CYS246     -0.2717
     73  CB         4.5980   -1.5790   34.4650 C.3   246  CYS246      0.0970
     74  SG         5.4570   -0.9950   33.0090 S.3   246  CYS246     -0.0800
     75  N          3.4540    1.6130   34.2420 N.am  247  VAL247     -0.1965
     76  CA         2.6370    2.5900   33.5070 C.3   247  VAL247      0.1727
     77  C          2.3360    2.2940   32.0340 C.2   247  VAL247      0.2616
     78  O          1.3400    2.7800   31.4970 O.2   247  VAL247     -0.2715
     79  CB         3.2850    3.9990   33.5600 C.3   247  VAL247      0.0290
     80  CG1        4.5540    4.0200   32.7030 C.3   247  VAL247      0.0023
     81  CG2        2.2970    5.0610   33.0820 C.3   247  VAL247      0.0023
     82  N          3.1750    1.4950   31.3860 N.am  248  ASP248     -0.1971
     83  CA         3.0000    1.2230   29.9670 C.3   248  ASP248      0.1709
     84  C          1.9410    0.2110   29.5470 C.2   248  ASP248      0.2293
     85  O          1.6480    0.0930   28.3610 O.2   248  ASP248     -0.2864
     86  CB         4.3620    0.8440   29.3510 C.3   248  ASP248      0.1436
     87  CG         4.8190   -0.5700   29.7180 C.2   248  ASP248      0.3671
     88  OD1        6.0300   -0.8530   29.5990 O.co2 248  ASP248     -0.2456
     89  OD2        3.9790   -1.4090   30.1050 O.co2 248  ASP248     -0.2456
     90  N         10.9540   -9.9210   25.3850 N.3   283  SER283     -0.1202
     91  CA        11.7110   -9.1770   26.3860 C.3   283  SER283      0.2020
     92  C         10.9660   -9.0760   27.7070 C.2   283  SER283      0.2619
     93  O         10.4730   -8.0070   28.0710 O.2   283  SER283     -0.2717
     94  CB        12.0430   -7.7700   25.8740 C.3   283  SER283      0.2103
     95  OG        13.0400   -7.8290   24.8720 O.3   283  SER283     -0.2182
     96  N         10.8900  -10.1990   28.4150 N.am  284  VAL284     -0.1965
     97  CA        10.2130  -10.2640   29.7040 C.3   284  VAL284      0.1727
     98  C         11.0190  -11.0780   30.7030 C.2   284  VAL284      0.2616
     99  O         11.6470  -12.0820   30.3460 O.2   284  VAL284     -0.2715
    100  CB         8.8210  -10.9470   29.6010 C.3   284  VAL284      0.0290
    101  CG1        7.8640  -10.0850   28.8080 C.3   284  VAL284      0.0023
    102  CG2        8.9620  -12.3330   28.9520 C.3   284  VAL284      0.0023
    103  N         11.0000  -10.6370   31.9570 N.am  285  GLY285     -0.1955
    104  CA        11.6820  -11.3760   32.9940 C.3   285  GLY285      0.1869
    105  C         10.8310  -12.6090   33.2390 C.2   285  GLY285      0.2309
    106  O          9.6610  -12.6560   32.8480 O.2   285  GLY285     -0.2863
    107  N         15.8140  -11.5280   34.7340 N.3   300  GLU300     -0.1231
    108  CA        15.5290  -10.5150   33.7240 C.3   300  GLU300      0.1699
    109  C         15.8720  -10.9960   32.3160 C.2   300  GLU300      0.2592
    110  O         16.8610  -11.6960   32.1080 O.2   300  GLU300     -0.2718
    111  CB        16.2900   -9.2220   34.0400 C.3   300  GLU300      0.0402
    112  CG        15.8650   -8.0200   33.1820 C.3   300  GLU300      0.1161
    113  CD        14.4040   -7.6350   33.3860 C.2   300  GLU300      0.3649
    114  OE1       13.5350   -8.5320   33.3090 O.co2 300  GLU300     -0.2457
    115  OE2       14.1230   -6.4370   33.6170 O.co2 300  GLU300     -0.2457
    116  N         15.0440  -10.6080   31.3520 N.am  301  TYR301     -0.1976
    117  CA        15.2280  -11.0070   29.9600 C.3   301  TYR301      0.1639
    118  C         16.6230  -10.7060   29.3990 C.2   301  TYR301      0.2290
    119  O         17.1190  -11.4160   28.5190 O.2   301  TYR301     -0.2864
    120  CB        14.1550  -10.3370   29.0940 C.3   301  TYR301      0.0560
    121  CG        14.2030   -8.8220   29.0880 C.ar  301  TYR301     -0.0198
    122  CD1       15.0720   -8.1330   28.2340 C.ar  301  TYR301     -0.0009
    123  CD2       13.3920   -8.0730   29.9480 C.ar  301  TYR301     -0.0009
    124  CE1       15.1360   -6.7370   28.2380 C.ar  301  TYR301      0.0417
    125  CE2       13.4460   -6.6760   29.9610 C.ar  301  TYR301      0.0417
    126  CZ        14.3230   -6.0150   29.1030 C.ar  301  TYR301      0.1957
    127  OH        14.3980   -4.6370   29.1160 O.3   301  TYR301     -0.2866
    128  N          6.9820  -12.0480   33.6720 N.3   326  ASN326     -0.1240
    129  CA         6.7440  -10.9910   34.6460 C.3   326  ASN326      0.1653
    130  C          6.0590   -9.8150   33.9610 C.2   326  ASN326      0.2266
    131  O          6.5750   -9.2930   32.9780 O.2   326  ASN326     -0.2867
    132  CB         8.0890  -10.5460   35.2520 C.3   326  ASN326      0.1155
    133  CG         7.9720   -9.3040   36.1220 C.2   326  ASN326      0.2627
    134  OD1        6.9390   -9.0520   36.7530 O.2   326  ASN326     -0.2716
    135  ND2        9.0480   -8.5250   36.1730 N.am  326  ASN326     -0.0877
    136  N          5.1610   -7.0310   35.6900 N.3   328  VAL328     -0.1245
    137  CA         5.3130   -5.9190   36.6250 C.3   328  VAL328      0.1561
    138  C          4.0120   -5.5290   37.3350 C.2   328  VAL328      0.2260
    139  O          3.5730   -4.3770   37.2870 O.2   328  VAL328     -0.2867
    140  CB         5.9020   -4.6780   35.8940 C.3   328  VAL328      0.0252
    141  CG1        6.4960   -3.6810   36.9110 C.3   328  VAL328      0.0019
    142  CG2        6.9660   -5.1320   34.8860 C.3   328  VAL328      0.0019
    143  N         21.1350    0.5390   37.3400 N.3   379  GLU379     -0.1245
    144  CA        19.7330    0.3230   37.6700 C.3   379  GLU379      0.1567
    145  C         19.5270   -0.7510   38.7220 C.2   379  GLU379      0.2260
    146  O         20.1970   -1.7790   38.7180 O.2   379  GLU379     -0.2867
    147  CB        18.9380   -0.0700   36.4210 C.3   379  GLU379      0.0388
    148  CG        18.5270    1.0900   35.5390 C.3   379  GLU379      0.1160
    149  CD        17.6330    0.6540   34.3880 C.2   379  GLU379      0.3649
    150  OE1       18.1010   -0.1340   33.5330 O.co2 379  GLU379     -0.2457
    151  OE2       16.4620    1.0970   34.3410 O.co2 379  GLU379     -0.2457
    152  N         16.6850   -3.3150   40.2670 N.3   381  PHE381     -0.1227
    153  CA        15.4240   -3.9090   39.8190 C.3   381  PHE381      0.1736
    154  C         14.4810   -4.1600   40.9940 C.2   381  PHE381      0.2595
    155  O         14.8620   -4.7540   42.0120 O.2   381  PHE381     -0.2718
    156  CB        15.6700   -5.2220   39.0510 C.3   381  PHE381      0.0547
    157  CG        16.4250   -5.0480   37.7380 C.ar  381  PHE381     -0.0202
    158  CD1       16.4690   -3.8100   37.0890 C.ar  381  PHE381     -0.0042
    159  CD2       17.0630   -6.1370   37.1370 C.ar  381  PHE381     -0.0042
    160  CE1       17.1360   -3.6630   35.8630 C.ar  381  PHE381     -0.0003
    161  CE2       17.7310   -6.0000   35.9090 C.ar  381  PHE381     -0.0003
    162  CZ        17.7660   -4.7600   35.2740 C.ar  381  PHE381     -0.0000
    163  N         13.2440   -3.7020   40.8290 N.am  382  ILE382     -0.1966
    164  CA        12.1980   -3.8220   41.8380 C.3   382  ILE382      0.1727
    165  C         12.0510   -5.2410   42.4020 C.2   382  ILE382      0.2616
    166  O         11.8200   -5.4120   43.6020 O.2   382  ILE382     -0.2715
    167  CB        10.8250   -3.3380   41.2470 C.3   382  ILE382      0.0290
    168  CG1        9.7400   -3.3580   42.3190 C.3   382  ILE382      0.0022
    169  CG2       10.4130   -4.2010   40.0630 C.3   382  ILE382      0.0023
    170  CD1        9.8810   -2.2660   43.3250 C.3   382  ILE382      0.0001
    171  N         12.2160   -6.2510   41.5440 N.am  383  PHE383     -0.1974
    172  CA        12.0670   -7.6480   41.9540 C.3   383  PHE383      0.1639
    173  C         13.2680   -8.3330   42.6020 C.2   383  PHE383      0.2290
    174  O         13.1560   -9.4720   43.0660 O.2   383  PHE383     -0.2864
    175  CB        11.6020   -8.4800   40.7630 C.3   383  PHE383      0.0560
    176  CG        12.4550   -8.3190   39.5330 C.ar  383  PHE383     -0.0200
    177  CD1       13.7620   -8.8040   39.5020 C.ar  383  PHE383     -0.0042
    178  CD2       11.9350   -7.7220   38.3850 C.ar  383  PHE383     -0.0042
    179  CE1       14.5360   -8.7060   38.3410 C.ar  383  PHE383     -0.0003
    180  CE2       12.7010   -7.6210   37.2190 C.ar  383  PHE383     -0.0003
    181  CZ        14.0040   -8.1170   37.1970 C.ar  383  PHE383     -0.0000
    182  N         -2.5030   -7.7870   29.7500 N.3   405  PHE405     -0.1241
    183  CA        -1.1640   -7.3100   29.4440 C.3   405  PHE405      0.1605
    184  C         -0.8520   -6.9820   27.9910 C.2   405  PHE405      0.2264
    185  O         -0.7310   -7.8710   27.1500 O.2   405  PHE405     -0.2867
    186  CB        -0.1650   -8.3550   29.9650 C.3   405  PHE405      0.0534
    187  CG         1.2820   -8.0200   29.7140 C.ar  405  PHE405     -0.0203
    188  CD1        1.8810   -6.9170   30.3290 C.ar  405  PHE405     -0.0042
    189  CD2        2.0560   -8.8200   28.8700 C.ar  405  PHE405     -0.0042
    190  CE1        3.2320   -6.6140   30.1050 C.ar  405  PHE405     -0.0003
    191  CE2        3.4060   -8.5310   28.6370 C.ar  405  PHE405     -0.0003
    192  CZ         3.9960   -7.4240   29.2560 C.ar  405  PHE405     -0.0000
    193  N          1.8480   -4.1940   26.7170 N.3   407  PRO407     -0.2116
    194  CA         2.7920   -3.0990   26.9640 C.3   407  PRO407      0.1372
    195  C          3.1230   -2.2260   25.7640 C.2   407  PRO407      0.2244
    196  O          3.2310   -2.7100   24.6330 O.2   407  PRO407     -0.2868
    197  CB         4.0350   -3.8280   27.4730 C.3   407  PRO407      0.0268
    198  CG         4.0150   -5.0920   26.6490 C.3   407  PRO407      0.0207
    199  CD         2.5440   -5.4980   26.6660 C.3   407  PRO407      0.0892
    200  N          5.9820   -0.3110   24.3100 N.3   409  LYS409     -0.1245
    201  CA         7.4300   -0.1670   24.4520 C.3   409  LYS409      0.1561
    202  C          8.0970    0.4370   23.2340 C.2   409  LYS409      0.2260
    203  O          9.1080    1.1260   23.3500 O.2   409  LYS409     -0.2867
    204  CB         8.0840   -1.5290   24.7300 C.3   409  LYS409      0.0271
    205  CG         7.1730   -2.5340   25.4010 C.3   409  LYS409      0.0035
    206  CD         7.8110   -3.1810   26.6090 C.3   409  LYS409      0.0206
    207  CE         7.8990   -2.2130   27.7690 C.3   409  LYS409      0.1093
    208  NZ         7.9770   -2.9380   29.0830 N.3   409  LYS409     -0.1314
@<TRIPOS>BOND
     1    25    24    2
     2    24    23    1
     3    23    26    1
     4    23    22    1
     5   202   203    2
     6   202   201    1
     7    26    27    1
     8    27    28    1
     9    28    29    1
    10   200   201    1
    11   201   204    1
    12   196   195    2
    13   204   205    1
    14    95    94    1
    15    90    91    1
    16   205   206    1
    17    29    30    2
    18    31    30    1
    19   195   194    1
    20    94    91    1
    21    30    32    1
    22    91    92    1
    23   206   207    1
    24   198   199    1
    25   198   197    1
    26   199   193    1
    27   193   194    1
    28   194   197    1
    29   185   184    2
    30    92    93    2
    31    92    96   am
    32   207   208    1
    33   184   183    1
    34   122   124   ar
    35   122   121   ar
    36   124   126   ar
    37    85    84    2
    38    96    97    1
    39   119   118    2
    40   191   189   ar
    41   191   192   ar
    42   101   100    1
    43   189   187   ar
    44   102   100    1
    45   121   120    1
    46   121   123   ar
    47   120   117    1
    48   126   127    1
    49   126   125   ar
    50   192   190   ar
    51    86    87    1
    52    86    83    1
    53   118   117    1
    54   183   182    1
    55   183   186    1
    56    84    83    1
    57    88    87   ar
    58   100    97    1
    59    97    98    1
    60   187   186    1
    61   187   188   ar
    62    87    89   ar
    63   123   125   ar
    64   117   116    1
    65    83    82    1
    66   190   188   ar
    67    99    98    2
    68    98   103   am
    69   116   109   am
    70    82    77   am
    71    78    77    2
    72   103   104    1
    73    77    76    1
    74    21    20    2
    75   110   109    2
    76    20    19    1
    77   109   108    1
    78    80    79    1
    79   106   105    2
    80   131   130    2
    81   104   105    1
    82    74    73    1
    83    81    79    1
    84   112   113    1
    85   112   111    1
    86    19    18    1
    87   114   113   ar
    88   113   115   ar
    89    76    79    1
    90    76    75    1
    91   150   149   ar
    92   128   129    1
    93   108   111    1
    94   108   107    1
    95   130   129    1
    96    72    71    2
    97    75    71   am
    98   151   149   ar
    99   149   148    1
   100    18    16   am
   101    73    70    1
   102    71    70    1
   103   129   132    1
   104   142   140    1
   105    17    16    2
   106    56    55    1
   107    56    50    1
   108    16    15    1
   109   132   133    1
   110   162   160   ar
   111   162   161   ar
   112    70    69    1
   113   148   147    1
   114    55    54    1
   115   136   137    1
   116    12    11    2
   117   160   158   ar
   118   140   137    1
   119   140   141    1
   120   161   159   ar
   121    13    10    1
   122    11    10    1
   123    11    14   am
   124    10     9    1
   125   133   135   am
   126   133   134    2
   127     4     3    2
   128    50    51    1
   129    14    15    1
   130   147   144    1
   131    54    51    1
   132   137   138    1
   133    53    52    2
   134   158   157   ar
   135   159   157   ar
   136   181   180   ar
   137   181   179   ar
   138   180   178   ar
   139     3     9   am
   140     3     2    1
   141   139   138    2
   142    51    52    1
   143   143   144    1
   144    68    66   am
   145   144   145    1
   146   157   156    1
   147    58    57    1
   148    58    59    1
   149   179   177   ar
   150    66    65    1
   151    66    67    2
   152   178   176   ar
   153     5     2    1
   154     5     6    1
   155     2     1    1
   156    61    59   am
   157    61    62    1
   158   146   145    2
   159    48    47    2
   160    65    62    1
   161   156   153    1
   162    59    60    2
   163     8     7    1
   164    36    35    2
   165    62    63    1
   166   177   176   ar
   167    47    49   am
   168    47    46    1
   169   176   175    1
   170     7     6    1
   171   153   152    1
   172   153   154    1
   173   169   167    1
   174    35    34    1
   175    46    45    1
   176    40    39    1
   177   175   172    1
   178   163   154   am
   179   163   164    1
   180    63    64    2
   181   154   155    2
   182   167   164    1
   183   167   168    1
   184    33    34    1
   185    34    37    1
   186   171   172    1
   187   171   165   am
   188   164   165    1
   189    45    42    1
   190    37    38    1
   191   172   173    1
   192    38    39    1
   193    44    43    2
   194   168   170    1
   195   165   166    2
   196    41    42    1
   197   173   174    2
   198    43    42    1
