@<TRIPOS>MOLECULE
tmp/2yqzB00.pdb
 181 175 0 0 0
SMALL
GASTEIGER

@<TRIPOS>ATOM
      1  N         13.4120    6.2630   17.1680 N.3    11  TYR11      -0.1241
      2  CA        13.7340    7.5970   17.6820 C.3    11  TYR11       0.1605
      3  C         12.4140    8.3170   17.9660 C.2    11  TYR11       0.2264
      4  O         12.2440    8.9400   19.0340 O.2    11  TYR11      -0.2867
      5  CB        14.5180    8.4150   16.6410 C.3    11  TYR11       0.0534
      6  CG        14.5760    9.8980   17.0120 C.ar   11  TYR11      -0.0201
      7  CD1       15.5250   10.3900   17.9360 C.ar   11  TYR11      -0.0009
      8  CD2       13.6070   10.7820   16.5370 C.ar   11  TYR11      -0.0009
      9  CE1       15.4860   11.7490   18.3810 C.ar   11  TYR11       0.0417
     10  CE2       13.5590   12.1360   16.9820 C.ar   11  TYR11       0.0417
     11  CZ        14.4830   12.5980   17.8890 C.ar   11  TYR11       0.1957
     12  OH        14.3890   13.9100   18.3120 O.3    11  TYR11      -0.2866
     13  N         11.3240    9.7230   21.8010 N.3    15  ARG15      -0.1245
     14  CA        11.2220   11.1190   22.1630 C.3    15  ARG15       0.1563
     15  C          9.8180   11.7080   22.1400 C.2    15  ARG15       0.2260
     16  O          9.6460   12.8850   22.4390 O.2    15  ARG15      -0.2867
     17  CB        12.1190   11.9260   21.2290 C.3    15  ARG15       0.0307
     18  CG        13.5670   11.5380   21.2980 C.3    15  ARG15       0.0489
     19  CD        14.1880   12.0260   22.5760 C.3    15  ARG15       0.2205
     20  NE        15.6430   11.9940   22.4520 N.pl3  15  ARG15      -0.0865
     21  CZ        16.4770   12.6250   23.2690 C.cat  15  ARG15       0.5346
     22  NH1       16.0060   13.3410   24.2820 N.pl3  15  ARG15       0.1354
     23  NH2       17.7870   12.5500   23.0580 N.pl3  15  ARG15       0.1354
     24  N         11.6390   24.4170    9.8940 N.3    43  GLU43      -0.1245
     25  CA        12.2910   23.7060   10.9940 C.3    43  GLU43       0.1567
     26  C         13.5620   23.0970   10.4110 C.2    43  GLU43       0.2260
     27  O         13.5150   22.4120    9.3750 O.2    43  GLU43      -0.2867
     28  CB        11.3910   22.5860   11.5780 C.3    43  GLU43       0.0388
     29  CG        12.1480   21.8790   12.7170 C.3    43  GLU43       0.1160
     30  CD        11.3320   20.8800   13.5570 C.2    43  GLU43       0.3649
     31  OE1       10.1180   20.7210   13.3440 O.co2  43  GLU43      -0.2457
     32  OE2       11.9610   20.2860   14.4400 O.co2  43  GLU43      -0.2457
     33  N         16.3150   20.4320   10.8620 N.3    45  GLY45      -0.1210
     34  CA        16.4990   19.1680   11.5790 C.3    45  GLY45       0.1956
     35  C         15.1370   18.6950   12.0850 C.2    45  GLY45       0.2612
     36  O         14.9930   18.3170   13.2560 O.2    45  GLY45      -0.2717
     37  N         14.1460   18.7610   11.1980 N.am   46  VAL46      -0.1965
     38  CA        12.7620   18.3600   11.5260 C.3    46  VAL46       0.1727
     39  C         12.6750   16.9250   12.0210 C.2    46  VAL46       0.2617
     40  O         11.7620   16.5960   12.7950 O.2    46  VAL46      -0.2715
     41  CB        11.7940   18.5630   10.2920 C.3    46  VAL46       0.0290
     42  CG1       12.2060   17.6650    9.0770 C.3    46  VAL46       0.0023
     43  CG2       10.3200   18.2680   10.7080 C.3    46  VAL46       0.0023
     44  N         13.6040   16.0690   11.5940 N.am   47  GLY47      -0.1940
     45  CA        13.5600   14.6870   12.0620 C.3    47  GLY47       0.2014
     46  C         12.2540   13.9980   11.6210 C.2    47  GLY47       0.2639
     47  O         11.8270   14.1210   10.4610 O.2    47  GLY47      -0.2714
     48  N         11.6360   13.2680   12.5520 N.am   48  THR48      -0.1950
     49  CA        10.4040   12.5270   12.2760 C.3    48  THR48       0.1897
     50  C          9.1760   13.3960   12.4320 C.2    48  THR48       0.2313
     51  O          8.0410   12.9160   12.3070 O.2    48  THR48      -0.2863
     52  CB        10.2530   11.3140   13.2130 C.3    48  THR48       0.1794
     53  OG1       10.2670   11.7570   14.5880 O.3    48  THR48      -0.2208
     54  CG2       11.3920   10.3520   12.9440 C.3    48  THR48       0.0378
     55  N          8.3480   15.3520   15.2750 N.3    50  ARG50      -0.1231
     56  CA         7.7680   15.4670   16.6240 C.3    50  ARG50       0.1694
     57  C          7.2730   16.8740   16.9780 C.2    50  ARG50       0.2591
     58  O          6.2350   17.0410   17.6160 O.2    50  ARG50      -0.2718
     59  CB         8.8090   15.0250   17.6490 C.3    50  ARG50       0.0321
     60  CG         8.4590   15.2380   19.1150 C.3    50  ARG50       0.0489
     61  CD         9.6180   14.6380   19.9580 C.3    50  ARG50       0.2205
     62  NE        10.8160   15.4820   19.9030 N.pl3  50  ARG50      -0.0865
     63  CZ        11.4880   15.8820   20.9750 C.cat  50  ARG50       0.5346
     64  NH1       11.0880   15.4870   22.1840 N.pl3  50  ARG50       0.1354
     65  NH2       12.4820   16.7610   20.8790 N.pl3  50  ARG50       0.1354
     66  N          8.0390   17.8880   16.5860 N.am   51  ILE51      -0.1980
     67  CA         7.7330   19.2800   16.9030 C.3    51  ILE51       0.1595
     68  C          6.8840   19.8680   15.7830 C.2    51  ILE51       0.2287
     69  O          6.0750   20.8000   15.9880 O.2    51  ILE51      -0.2864
     70  CB         9.0520   20.1050   16.9940 C.3    51  ILE51       0.0276
     71  CG1       10.0030   19.4670   18.0230 C.3    51  ILE51       0.0022
     72  CG2        8.7300   21.5800   17.2930 C.3    51  ILE51       0.0022
     73  CD1        9.5460   19.5770   19.4940 C.3    51  ILE51       0.0001
     74  N         12.8960   20.6800    6.9730 N.3    65  LEU65      -0.1231
     75  CA        14.2180   20.3710    6.4360 C.3    65  LEU65       0.1693
     76  C         15.0160   19.3710    7.2650 C.2    65  LEU65       0.2592
     77  O         15.1040   19.4810    8.5060 O.2    65  LEU65      -0.2718
     78  CB        15.0160   21.7100    6.2980 C.3    65  LEU65       0.0284
     79  CG        16.4330   21.6470    5.6840 C.3    65  LEU65       0.0019
     80  CD1       16.7920   22.9620    5.0060 C.3    65  LEU65       0.0001
     81  CD2       17.4550   21.3360    6.8040 C.3    65  LEU65       0.0001
     82  N         15.5960   18.3780    6.5940 N.am   66  ASP66      -0.1960
     83  CA        16.4830   17.4290    7.3090 C.3    66  ASP66       0.1840
     84  C         17.4810   16.8520    6.3290 C.2    66  ASP66       0.2622
     85  O         17.1580   16.6930    5.1520 O.2    66  ASP66      -0.2715
     86  CB        15.7110   16.2720    7.9480 C.3    66  ASP66       0.1450
     87  CG        16.4680   15.6910    9.1300 C.2    66  ASP66       0.3671
     88  OD1       17.4460   14.9230    8.9400 O.co2  66  ASP66      -0.2456
     89  OD2       16.1330   16.0650   10.2720 O.co2  66  ASP66      -0.2456
     90  N         18.6820   16.5220    6.8090 N.am   67  ALA67      -0.1963
     91  CA        19.6840   15.9180    5.9040 C.3    67  ALA67       0.1728
     92  C         19.4700   14.4210    5.7490 C.2    67  ALA67       0.2616
     93  O         19.9900   13.8110    4.8130 O.2    67  ALA67      -0.2715
     94  CB        21.0660   16.1510    6.4560 C.3    67  ALA67       0.0334
     95  N         18.6890   13.8380    6.6550 N.am   68  ASP68      -0.1971
     96  CA        18.5180   12.3830    6.6820 C.3    68  ASP68       0.1709
     97  C         17.2890   11.8390    5.9990 C.2    68  ASP68       0.2293
     98  O         16.1810   12.1510    6.3970 O.2    68  ASP68      -0.2864
     99  CB        18.6020   11.9090    8.1380 C.3    68  ASP68       0.1436
    100  CG        18.5860   10.3760    8.2700 C.2    68  ASP68       0.3671
    101  OD1       17.5000    9.7690    8.1880 O.co2  68  ASP68      -0.2456
    102  OD2       19.6820    9.8020    8.4560 O.co2  68  ASP68      -0.2456
    103  N         17.9930   18.5760    2.7460 N.3    90  ALA90      -0.1231
    104  CA        19.1290   19.4930    2.5300 C.3    90  ALA90       0.1694
    105  C         19.8850   19.6340    3.8350 C.2    90  ALA90       0.2592
    106  O         19.4360   19.1210    4.8760 O.2    90  ALA90      -0.2718
    107  CB        18.6140   20.8740    2.0930 C.3    90  ALA90       0.0304
    108  N         21.0240   20.3300    3.7780 N.am   91  ASP91      -0.1960
    109  CA        21.8400   20.5580    4.9700 C.3    91  ASP91       0.1840
    110  C         21.4510   21.9070    5.5340 C.2    91  ASP91       0.2622
    111  O         21.2830   22.8710    4.7700 O.2    91  ASP91      -0.2715
    112  CB        23.3340   20.5660    4.6160 C.3    91  ASP91       0.1450
    113  CG        24.1930   20.3360    5.8090 C.2    91  ASP91       0.3671
    114  OD1       24.1550   21.1650    6.7200 O.co2  91  ASP91      -0.2456
    115  OD2       24.9080   19.3140    5.8390 O.co2  91  ASP91      -0.2456
    116  N         21.3110   21.9850    6.8660 N.am   92  ALA92      -0.1963
    117  CA        20.9290   23.2310    7.5080 C.3    92  ALA92       0.1728
    118  C         22.0030   24.2910    7.3220 C.2    92  ALA92       0.2616
    119  O         21.7670   25.4610    7.5470 O.2    92  ALA92      -0.2715
    120  CB        20.6850   22.9940    8.9840 C.3    92  ALA92       0.0334
    121  N         23.2040   23.8780    6.9270 N.am   93  ARG93      -0.1977
    122  CA        24.2550   24.8860    6.6780 C.3    93  ARG93       0.1597
    123  C         24.1250   25.5780    5.2980 C.2    93  ARG93       0.2287
    124  O         24.8970   26.4810    4.9670 O.2    93  ARG93      -0.2864
    125  CB        25.6390   24.2330    6.7920 C.3    93  ARG93       0.0334
    126  CG        25.9900   23.8070    8.2070 C.3    93  ARG93       0.0492
    127  CD        27.2680   22.9300    8.2260 C.3    93  ARG93       0.2205
    128  NE        26.9720   21.6210    7.6800 N.pl3  93  ARG93      -0.0865
    129  CZ        27.8610   20.6430    7.5380 C.cat  93  ARG93       0.5346
    130  NH1       29.1210   20.8440    7.9030 N.pl3  93  ARG93       0.1354
    131  NH2       27.4860   19.4590    7.0510 N.pl3  93  ARG93       0.1354
    132  N         15.2420   22.2920   17.2750 N.3   108  VAL108     -0.1231
    133  CA        15.0990   21.4800   18.4910 C.3   108  VAL108      0.1692
    134  C         16.0170   20.2840   18.4260 C.2   108  VAL108      0.2592
    135  O         15.8930   19.4390   17.5300 O.2   108  VAL108     -0.2718
    136  CB        13.6290   20.9740   18.6740 C.3   108  VAL108      0.0266
    137  CG1       13.5460   20.0800   19.9560 C.3   108  VAL108      0.0020
    138  CG2       12.6950   22.1550   18.7740 C.3   108  VAL108      0.0020
    139  N         16.9960   20.2700   19.3300 N.am  109  HIS109     -0.1962
    140  CA        17.9380   19.1510   19.4260 C.3   109  HIS109      0.1787
    141  C         18.8040   18.9900   18.1700 C.2   109  HIS109      0.2620
    142  O         18.9410   17.8960   17.6060 O.2   109  HIS109     -0.2715
    143  CB        17.1690   17.8430   19.7320 C.3   109  HIS109      0.0785
    144  CG        16.4810   17.8580   21.0710 C.ar  109  HIS109      0.0821
    145  ND1       15.7960   16.7680   21.5760 N.ar  109  HIS109     -0.2267
    146  CD2       16.3840   18.8270   22.0120 C.ar  109  HIS109      0.1154
    147  CE1       15.3120   17.0700   22.7700 C.ar  109  HIS109      0.1986
    148  NE2       15.6560   18.3120   23.0590 N.ar  109  HIS109     -0.2212
    149  N         19.4160   20.0950   17.7830 N.am  110  LEU110     -0.1977
    150  CA        20.2870   20.0940   16.6160 C.3   110  LEU110      0.1596
    151  C         21.6870   20.5970   16.9340 C.2   110  LEU110      0.2287
    152  O         22.6340   20.0570   16.4030 O.2   110  LEU110     -0.2864
    153  CB        19.6970   20.9870   15.5090 C.3   110  LEU110      0.0297
    154  CG        20.5260   21.1720   14.2200 C.3   110  LEU110      0.0022
    155  CD1       20.6490   19.8430   13.5360 C.3   110  LEU110      0.0001
    156  CD2       19.8530   22.1850   13.2800 C.3   110  LEU110      0.0001
    157  N         23.8990   20.2020   19.2010 N.3   112  HIS112     -0.1226
    158  CA        24.9150   19.2720   19.6850 C.3   112  HIS112      0.1752
    159  C         25.3830   18.3580   18.5700 C.2   112  HIS112      0.2596
    160  O         26.3350   17.6010   18.7530 O.2   112  HIS112     -0.2718
    161  CB        24.3960   18.4360   20.8700 C.3   112  HIS112      0.0759
    162  CG        23.2430   17.5510   20.5210 C.ar  112  HIS112      0.0818
    163  ND1       22.0840   18.0360   19.9530 N.ar  112  HIS112     -0.2268
    164  CD2       23.0980   16.2070   20.5840 C.ar  112  HIS112      0.1154
    165  CE1       21.2780   17.0270   19.6700 C.ar  112  HIS112      0.1986
    166  NE2       21.8690   15.9070   20.0450 N.ar  112  HIS112     -0.2212
    167  N         24.7490   18.4510   17.4080 N.am  113  LEU113     -0.1966
    168  CA        25.1330   17.6120   16.2690 C.3   113  LEU113      0.1728
    169  C         25.8350   18.4320   15.1930 C.2   113  LEU113      0.2616
    170  O         26.2610   17.8800   14.1790 O.2   113  LEU113     -0.2715
    171  CB        23.9010   16.9680   15.6400 C.3   113  LEU113      0.0311
    172  CG        23.0550   16.1580   16.6290 C.3   113  LEU113      0.0022
    173  CD1       21.7390   15.7200   15.9610 C.3   113  LEU113      0.0001
    174  CD2       23.8740   14.9430   17.1150 C.3   113  LEU113      0.0001
    175  N         25.9530   19.7330   15.3980 N.am  114  VAL114     -0.1977
    176  CA        26.5890   20.5960   14.3800 C.3   114  VAL114      0.1596
    177  C         27.6960   21.4740   14.9590 C.2   114  VAL114      0.2287
    178  O         27.4520   22.5400   15.5040 O.2   114  VAL114     -0.2864
    179  CB        25.5290   21.4880   13.6990 C.3   114  VAL114      0.0276
    180  CG1       26.1420   22.1860   12.5070 C.3   114  VAL114      0.0022
    181  CG2       24.3440   20.6120   13.1980 C.3   114  VAL114      0.0022
@<TRIPOS>BOND
     1   107   104    1
     2   104   103    1
     3   104   105    1
     4   108   105   am
     5   108   109    1
     6   105   106    2
     7   112   109    1
     8   112   113    1
     9   111   110    2
    10    93    92    2
    11   124   123    2
    12   109   110    1
    13    80    79    1
    14    85    84    2
    15   123   122    1
    16   110   116   am
    17    79    78    1
    18    79    81    1
    19    92    91    1
    20    92    95   am
    21   113   115   ar
    22   113   114   ar
    23    91    94    1
    24    91    90    1
    25    97    98    2
    26    97    96    1
    27    78    75    1
    28    84    90   am
    29    84    83    1
    30    75    74    1
    31    75    76    1
    32    82    76   am
    33    82    83    1
    34    95    96    1
    35   122   125    1
    36   122   121    1
    37    96    99    1
    38   125   126    1
    39   116   117    1
    40   121   118   am
    41   131   129    1
    42    76    77    2
    43    83    86    1
    44   118   117    1
    45   118   119    2
    46   117   120    1
    47   129   128    2
    48   129   130    1
    49   128   127    1
    50    86    87    1
    51    99   100    1
    52   101   100   ar
    53   126   127    1
    54   100   102   ar
    55    88    87   ar
    56    42    41    1
    57    87    89   ar
    58    27    26    2
    59    24    25    1
    60    41    43    1
    61    41    38    1
    62    26    25    1
    63    47    46    2
    64    33    34    1
    65    25    28    1
    66    37    38    1
    67    37    35   am
    68    38    39    1
    69    28    29    1
    70    34    35    1
    71    44    39   am
    72    44    45    1
    73    46    45    1
    74    46    48   am
    75    39    40    2
    76    35    36    2
    77    49    50    1
    78    49    48    1
    79    49    52    1
    80    51    50    2
    81   180   179    1
    82    29    30    1
    83    54    52    1
    84   181   179    1
    85    52    53    1
    86   156   154    1
    87    31    30   ar
    88   155   154    1
    89    30    32   ar
    90   179   176    1
    91   170   169    2
    92   154   153    1
    93   176   177    1
    94   176   175    1
    95   177   178    2
    96   169   175   am
    97   169   168    1
    98    55    56    1
    99   153   150    1
   100   171   168    1
   101   171   172    1
   102    68    69    2
   103    68    67    1
   104   173   172    1
   105   168   167    1
   106   152   151    2
   107     8    10   ar
   108     8     6   ar
   109    66    67    1
   110    66    57   am
   111   150   151    1
   112   150   149    1
   113    56    57    1
   114    56    59    1
   115   172   174    1
   116     5     6    1
   117     5     2    1
   118    67    70    1
   119    57    58    2
   120    10    11   ar
   121    70    72    1
   122    70    71    1
   123     6     7   ar
   124     1     2    1
   125   132   133    1
   126   167   159   am
   127   135   134    2
   128   142   141    2
   129    59    60    1
   130     2     3    1
   131   149   141   am
   132    11    12    1
   133    11     9   ar
   134     7     9   ar
   135     3     4    2
   136    71    73    1
   137   141   140    1
   138   134   133    1
   139   134   139   am
   140   133   136    1
   141   159   160    2
   142   159   158    1
   143   136   138    1
   144   136   137    1
   145    60    61    1
   146   157   158    1
   147   139   140    1
   148   140   143    1
   149   165   163   ar
   150   165   166   ar
   151   158   161    1
   152   143   144    1
   153    62    61    1
   154    62    63    2
   155   163   162   ar
   156   166   164   ar
   157   162   164   ar
   158   162   161    1
   159    65    63    1
   160    63    64    1
   161   144   145   ar
   162   144   146   ar
   163    17    18    1
   164    17    14    1
   165    18    19    1
   166   145   147   ar
   167    13    14    1
   168   146   148   ar
   169    15    14    1
   170    15    16    2
   171    20    19    1
   172    20    21    2
   173   147   148   ar
   174    23    21    1
   175    21    22    1
