@<TRIPOS>MOLECULE
tmp/2yr6B01.pdb
 124 121 0 0 0
SMALL
GASTEIGER

@<TRIPOS>ATOM
      1  N         65.5940   35.6400  103.3030 N.3   124  ARG124     -0.1245
      2  CA        64.5580   36.3520  104.0330 C.3   124  ARG124      0.1563
      3  C         63.7350   37.1470  103.0910 C.2   124  ARG124      0.2260
      4  O         64.2580   37.8620  102.2730 O.2   124  ARG124     -0.2867
      5  CB        65.1560   37.1160  105.2290 C.3   124  ARG124      0.0307
      6  CG        66.2900   38.1420  104.8800 C.3   124  ARG124      0.0489
      7  CD        67.0050   38.5340  106.1520 C.3   124  ARG124      0.2205
      8  NE        68.0820   39.4270  105.7960 N.pl3 124  ARG124     -0.0865
      9  CZ        69.0840   39.7410  106.6210 C.cat 124  ARG124      0.5346
     10  NH1       69.0550   39.2330  107.8330 N.pl3 124  ARG124      0.1354
     11  NH2       70.1370   40.4540  106.2380 N.pl3 124  ARG124      0.1354
     12  N         67.7500   44.7460  109.5060 N.3   294  THR294     -0.1218
     13  CA        68.4500   43.5690  108.9430 C.3   294  THR294      0.1862
     14  C         69.9850   43.7010  109.2230 C.2   294  THR294      0.2287
     15  O         70.7750   43.0820  108.5120 O.2   294  THR294     -0.2866
     16  CB        68.1040   43.2750  107.5320 C.3   294  THR294      0.1770
     17  OG1       68.5580   44.3120  106.6530 O.3   294  THR294     -0.2211
     18  CG2       66.6470   42.9660  107.3270 C.3   294  THR294      0.0375
     19  N         73.6700   48.9870  108.0440 N.3   297  PHE297     -0.1241
     20  CA        73.7760   49.4690  106.6460 C.3   297  PHE297      0.1605
     21  C         74.9530   50.4000  106.4380 C.2   297  PHE297      0.2264
     22  O         75.1360   50.8590  105.3070 O.2   297  PHE297     -0.2867
     23  CB        72.4870   50.0360  106.1390 C.3   297  PHE297      0.0534
     24  CG        71.5260   49.0830  105.5170 C.ar  297  PHE297     -0.0203
     25  CD1       71.4110   47.7380  105.8690 C.ar  297  PHE297     -0.0042
     26  CD2       70.6430   49.5910  104.5570 C.ar  297  PHE297     -0.0042
     27  CE1       70.5140   46.9070  105.2870 C.ar  297  PHE297     -0.0003
     28  CE2       69.7330   48.7470  103.9570 C.ar  297  PHE297     -0.0003
     29  CZ        69.6270   47.4120  104.3170 C.ar  297  PHE297     -0.0000
     30  N         76.5740   49.6340  103.3370 N.3   300  LEU300     -0.1245
     31  CA        75.7550   50.0460  102.2220 C.3   300  LEU300      0.1561
     32  C         75.6160   51.5710  102.1080 C.2   300  LEU300      0.2260
     33  O         74.8370   52.0460  101.3010 O.2   300  LEU300     -0.2867
     34  CB        74.3560   49.4070  102.3140 C.3   300  LEU300      0.0270
     35  CG        74.3280   47.8600  102.5700 C.3   300  LEU300      0.0019
     36  CD1       72.9280   47.3390  102.4180 C.3   300  LEU300      0.0001
     37  CD2       75.3280   47.1370  101.6630 C.3   300  LEU300      0.0001
     38  N         63.5670   50.6900   99.3280 N.3   311  LEU311     -0.1245
     39  CA        63.4520   49.7120  100.3850 C.3   311  LEU311      0.1561
     40  C         62.5940   50.2340  101.5220 C.2   311  LEU311      0.2260
     41  O         61.8210   49.5070  102.1680 O.2   311  LEU311     -0.2867
     42  CB        64.8320   49.3060  100.8830 C.3   311  LEU311      0.0270
     43  CG        65.7370   48.6300   99.8370 C.3   311  LEU311      0.0019
     44  CD1       67.1120   48.3270  100.4600 C.3   311  LEU311      0.0001
     45  CD2       65.0360   47.3980   99.2520 C.3   311  LEU311      0.0001
     46  N         60.9620   46.9240  103.6540 N.3   316  TYR316     -0.1241
     47  CA        61.7080   45.7140  103.2600 C.3   316  TYR316      0.1605
     48  C         62.0600   44.7530  104.4080 C.2   316  TYR316      0.2264
     49  O         62.2980   43.5660  104.1780 O.2   316  TYR316     -0.2867
     50  CB        62.9640   46.1110  102.4920 C.3   316  TYR316      0.0534
     51  CG        64.1780   46.2930  103.4320 C.ar  316  TYR316     -0.0201
     52  CD1       65.0560   45.2800  103.6160 C.ar  316  TYR316     -0.0009
     53  CD2       64.3220   47.4830  104.1760 C.ar  316  TYR316     -0.0009
     54  CE1       66.0550   45.3460  104.5960 C.ar  316  TYR316      0.0417
     55  CE2       65.3270   47.5380  105.1260 C.ar  316  TYR316      0.0417
     56  CZ        66.1930   46.4720  105.3580 C.ar  316  TYR316      0.1957
     57  OH        67.1210   46.5480  106.3570 O.3   316  TYR316     -0.2866
     58  N         77.7320   37.4330  108.3350 N.3   513  TYR513     -0.1241
     59  CA        77.1310   37.7720  107.0620 C.3   513  TYR513      0.1605
     60  C         77.4940   39.2040  106.7760 C.2   513  TYR513      0.2264
     61  O         77.0670   40.0940  107.4960 O.2   513  TYR513     -0.2867
     62  CB        75.6170   37.5870  107.1690 C.3   513  TYR513      0.0534
     63  CG        74.8320   37.9700  105.9180 C.ar  513  TYR513     -0.0201
     64  CD1       73.4930   38.3180  105.9990 C.ar  513  TYR513     -0.0009
     65  CD2       75.4270   38.0370  104.6900 C.ar  513  TYR513     -0.0009
     66  CE1       72.7630   38.6740  104.8950 C.ar  513  TYR513      0.0417
     67  CE2       74.6800   38.4350  103.5490 C.ar  513  TYR513      0.0417
     68  CZ        73.3620   38.7320  103.6630 C.ar  513  TYR513      0.1957
     69  OH        72.6900   39.1830  102.5600 O.3   513  TYR513     -0.2866
     70  N         78.5080   42.4440  103.9420 N.3   515  TRP515     -0.1241
     71  CA        78.3420   43.1610  102.7090 C.3   515  TRP515      0.1605
     72  C         79.5060   44.1240  102.4840 C.2   515  TRP515      0.2264
     73  O         80.0840   44.7160  103.4080 O.2   515  TRP515     -0.2867
     74  CB        77.0920   44.0030  102.6800 C.3   515  TRP515      0.0550
     75  CG        75.8100   43.2140  102.8490 C.ar  515  TRP515      0.0003
     76  CD1       75.3710   42.1240  102.1300 C.ar  515  TRP515      0.0946
     77  CD2       74.7810   43.4780  103.7980 C.ar  515  TRP515      0.0152
     78  NE1       74.1650   41.7140  102.5710 N.ar  515  TRP515     -0.2442
     79  CE2       73.7870   42.5060  103.5950 C.ar  515  TRP515      0.0810
     80  CE3       74.6000   44.4570  104.7640 C.ar  515  TRP515      0.0012
     81  CZ2       72.6210   42.5050  104.3550 C.ar  515  TRP515      0.0191
     82  CZ3       73.4280   44.4350  105.5200 C.ar  515  TRP515      0.0001
     83  CH2       72.4740   43.4890  105.2930 C.ar  515  TRP515      0.0015
     84  N         74.8080   40.7190   94.5960 N.3   594  PHE594     -0.1241
     85  CA        73.6030   41.2510   93.9750 C.3   594  PHE594      0.1605
     86  C         73.8210   42.7370   93.7040 C.2   594  PHE594      0.2264
     87  O         74.6080   43.3970   94.3970 O.2   594  PHE594     -0.2867
     88  CB        72.4020   41.0580   94.9150 C.3   594  PHE594      0.0534
     89  CG        72.6150   41.4690   96.3640 C.ar  594  PHE594     -0.0203
     90  CD1       72.4370   42.7730   96.8180 C.ar  594  PHE594     -0.0042
     91  CD2       72.8940   40.4840   97.2990 C.ar  594  PHE594     -0.0042
     92  CE1       72.5780   43.0850   98.1150 C.ar  594  PHE594     -0.0003
     93  CE2       73.0330   40.8100   98.6050 C.ar  594  PHE594     -0.0003
     94  CZ        72.8650   42.1050   99.0350 C.ar  594  PHE594     -0.0000
     95  N         73.4320   46.6190   93.8340 N.3   596  LEU596     -0.1245
     96  CA        72.9450   47.7860   94.6480 C.3   596  LEU596      0.1561
     97  C         73.4350   49.0080   93.9280 C.2   596  LEU596      0.2260
     98  O         74.6530   49.1360   93.5950 O.2   596  LEU596     -0.2867
     99  CB        73.4710   47.7930   96.0410 C.3   596  LEU596      0.0270
    100  CG        72.9220   46.7080   96.9970 C.3   596  LEU596      0.0019
    101  CD1       73.6470   46.7750   98.3200 C.3   596  LEU596      0.0001
    102  CD2       71.4100   46.8100   97.1710 C.3   596  LEU596      0.0001
    103  N         67.5650   44.8140   93.1540 N.3   635  GLY635     -0.1210
    104  CA        68.7370   43.9910   93.2280 C.3   635  GLY635      0.1956
    105  C         68.8440   43.4700   94.6530 C.2   635  GLY635      0.2612
    106  O         68.6900   44.1790   95.6100 O.2   635  GLY635     -0.2717
    107  N         69.1780   42.1700   94.7690 N.am  636  GLY636     -0.1942
    108  CA        69.2540   41.5430   96.0840 C.3   636  GLY636      0.2014
    109  C         67.9730   40.9490   96.5920 C.2   636  GLY636      0.2638
    110  O         67.9240   40.5240   97.7390 O.2   636  GLY636     -0.2714
    111  N         66.9640   40.8710   95.7090 N.am  637  TRP637     -0.1973
    112  CA        65.6810   40.2890   96.0600 C.3   637  TRP637      0.1640
    113  C         65.1670   39.3690   94.9500 C.2   637  TRP637      0.2290
    114  O         65.1780   39.7780   93.7730 O.2   637  TRP637     -0.2864
    115  CB        64.5960   41.3310   96.3660 C.3   637  TRP637      0.0576
    116  CG        65.0850   42.3310   97.4030 C.ar  637  TRP637      0.0006
    117  CD1       65.6450   43.5190   97.1600 C.ar  637  TRP637      0.0946
    118  CD2       65.1040   42.1530   98.8250 C.ar  637  TRP637      0.0152
    119  NE1       66.0410   44.1080   98.3520 N.ar  637  TRP637     -0.2442
    120  CE2       65.7610   43.2660   99.3840 C.ar  637  TRP637      0.0810
    121  CE3       64.7690   41.0870   99.6850 C.ar  637  TRP637      0.0012
    122  CZ2       65.9870   43.3840  100.6980 C.ar  637  TRP637      0.0191
    123  CZ3       65.0380   41.2040  101.0390 C.ar  637  TRP637      0.0001
    124  CH2       65.5990   42.3640  101.5420 C.ar  637  TRP637      0.0015
@<TRIPOS>BOND
     1   103   104    1
     2   104   105    1
     3    98    97    2
     4    86    85    1
     5    86    87    2
     6   114   113    2
     7    95    96    1
     8    97    96    1
     9    85    84    1
    10    85    88    1
    11    96    99    1
    12   105   107   am
    13   105   106    2
    14   107   108    1
    15    88    89    1
    16   113   112    1
    17   111   112    1
    18   111   109   am
    19    99   100    1
    20   112   115    1
    21   108   109    1
    22    89    90   ar
    23    89    91   ar
    24   115   116    1
    25   109   110    2
    26    90    92   ar
    27   100   102    1
    28   100   101    1
    29   117   116   ar
    30   117   119   ar
    31    91    93   ar
    32   116   118   ar
    33    92    94   ar
    34   119   120   ar
    35    93    94   ar
    36   118   120   ar
    37   118   121   ar
    38    45    43    1
    39    38    39    1
    40   120   122   ar
    41   121   123   ar
    42    43    44    1
    43    43    42    1
    44    39    42    1
    45    39    40    1
    46   122   124   ar
    47   123   124   ar
    48    33    32    2
    49    40    41    2
    50    37    35    1
    51    32    31    1
    52    76    78   ar
    53    76    75   ar
    54    31    34    1
    55    31    30    1
    56     4     3    2
    57    34    35    1
    58    36    35    1
    59    72    71    1
    60    72    73    2
    61    50    47    1
    62    50    51    1
    63    69    68    1
    64    78    79   ar
    65    74    71    1
    66    74    75    1
    67    71    70    1
    68    75    77   ar
    69     3     2    1
    70    47    46    1
    71    47    48    1
    72     1     2    1
    73    51    52   ar
    74    51    53   ar
    75    67    68   ar
    76    67    65   ar
    77    79    77   ar
    78    79    81   ar
    79    52    54   ar
    80    68    66   ar
    81    77    80   ar
    82    28    29   ar
    83    28    26   ar
    84     2     5    1
    85    53    55   ar
    86    49    48    2
    87    29    27   ar
    88    81    83   ar
    89    26    24   ar
    90    54    56   ar
    91    65    63   ar
    92    80    82   ar
    93     6     5    1
    94     6     7    1
    95    66    64   ar
    96    55    56   ar
    97    27    25   ar
    98    83    82   ar
    99    22    21    2
   100    56    57    1
   101    24    25   ar
   102    24    23    1
   103     8     7    1
   104     8     9    2
   105    63    64   ar
   106    63    62    1
   107    23    20    1
   108    11     9    1
   109    21    20    1
   110     9    10    1
   111    20    19    1
   112    17    16    1
   113    60    59    1
   114    60    61    2
   115    59    62    1
   116    59    58    1
   117    18    16    1
   118    16    13    1
   119    15    14    2
   120    13    14    1
   121    13    12    1
