@<TRIPOS>MOLECULE
tmp/2yriA00.pdb
 145 135 0 0 0
SMALL
GASTEIGER

@<TRIPOS>ATOM
      1  N         80.5440   51.2720   65.9760 N.3     6  PRO6       -0.2102
      2  CA        79.5780   50.3280   65.4000 C.3     6  PRO6        0.1504
      3  C         78.8960   49.5540   66.5270 C.2     6  PRO6        0.2576
      4  O         78.8970   48.3240   66.5410 O.2     6  PRO6       -0.2718
      5  CB        80.4520   49.4350   64.5230 C.3     6  PRO6        0.0282
      6  CG        81.7590   49.4110   65.2880 C.3     6  PRO6        0.0208
      7  CD        81.9320   50.8520   65.7020 C.3     6  PRO6        0.0893
      8  N         78.3130   50.3030   67.4600 N.am    7  GLY7       -0.1943
      9  CA        77.6610   49.7210   68.6170 C.3     7  GLY7        0.1998
     10  C         78.5170   50.0300   69.8380 C.2     7  GLY7        0.2480
     11  O         79.6820   49.6460   69.8690 O.2     7  GLY7       -0.2729
     12  N         77.9840   50.7330   70.8540 N.am    8  PRO8       -0.2726
     13  CA        76.6230   51.2630   70.9340 C.3     8  PRO8        0.1402
     14  C         76.3600   52.3360   69.8780 C.2     8  PRO8        0.2269
     15  O         77.2810   52.7800   69.1910 O.2     8  PRO8       -0.2865
     16  CB        76.5590   51.8080   72.3560 C.3     8  PRO8        0.0296
     17  CG        77.9520   52.2990   72.5720 C.3     8  PRO8        0.0237
     18  CD        78.7730   51.1570   72.0250 C.3     8  PRO8        0.0939
     19  N         73.8660   42.0630   77.7100 N.3    60  SER60      -0.1202
     20  CA        74.3240   42.5850   76.4240 C.3    60  SER60       0.2020
     21  C         74.0930   41.5640   75.3110 C.2    60  SER60       0.2619
     22  O         73.5520   40.4940   75.5530 O.2    60  SER60      -0.2717
     23  CB        75.8110   42.9380   76.4990 C.3    60  SER60       0.2103
     24  OG        76.6120   41.7710   76.5180 O.3    60  SER60      -0.2182
     25  N         74.5130   41.8950   74.0940 N.am   61  GLY61      -0.1942
     26  CA        74.3380   40.9790   72.9780 C.3    61  GLY61       0.2014
     27  C         74.9980   39.6280   73.2080 C.2    61  GLY61       0.2639
     28  O         74.4920   38.5990   72.7670 O.2    61  GLY61      -0.2714
     29  N         76.1260   39.6250   73.9060 N.am   62  SER62      -0.1949
     30  CA        76.8450   38.3930   74.1900 C.3    62  SER62       0.1924
     31  C         76.0050   37.4030   74.9850 C.2    62  SER62       0.2314
     32  O         76.1140   36.1930   74.7830 O.2    62  SER62      -0.2863
     33  CB        78.1330   38.6970   74.9510 C.3    62  SER62       0.2116
     34  OG        79.0250   39.4260   74.1340 O.3    62  SER62      -0.2180
     35  N         73.9010   35.6980   72.7300 N.3    65  MET65      -0.1245
     36  CA        74.7080   34.7370   71.9830 C.3    65  MET65       0.1570
     37  C         74.8840   33.4330   72.7700 C.2    65  MET65       0.2261
     38  O         74.6020   32.3400   72.2620 O.2    65  MET65      -0.2867
     39  CB        76.0820   35.3370   71.6700 C.3    65  MET65       0.0387
     40  CG        76.9660   34.4550   70.7980 C.3    65  MET65       0.0595
     41  SD        78.6860   35.0270   70.6880 S.3    65  MET65      -0.1393
     42  CE        78.5260   36.2820   69.4170 C.3    65  MET65       0.0692
     43  N         83.6650   37.9370   66.0390 N.3    85  PHE85      -0.1241
     44  CA        82.4640   37.4690   66.7060 C.3    85  PHE85       0.1605
     45  C         82.0050   36.0510   66.4260 C.2    85  PHE85       0.2264
     46  O         81.3560   35.4430   67.2770 O.2    85  PHE85      -0.2867
     47  CB        81.3480   38.4960   66.5300 C.3    85  PHE85       0.0534
     48  CG        81.6540   39.7850   67.2200 C.ar   85  PHE85      -0.0203
     49  CD1       82.2180   40.8470   66.5260 C.ar   85  PHE85      -0.0042
     50  CD2       81.5290   39.8810   68.6020 C.ar   85  PHE85      -0.0042
     51  CE1       82.6650   41.9850   67.2030 C.ar   85  PHE85      -0.0003
     52  CE2       81.9730   41.0120   69.2900 C.ar   85  PHE85      -0.0003
     53  CZ        82.5430   42.0620   68.5920 C.ar   85  PHE85      -0.0000
     54  N         84.0050   34.2300   68.6990 N.3    88  ARG88      -0.1245
     55  CA        83.4550   34.2220   70.0470 C.3    88  ARG88       0.1563
     56  C         82.4270   33.0970   70.1770 C.2    88  ARG88       0.2260
     57  O         82.3130   32.4700   71.2310 O.2    88  ARG88      -0.2867
     58  CB        82.8120   35.5730   70.3790 C.3    88  ARG88       0.0307
     59  CG        82.1350   35.6120   71.7440 C.3    88  ARG88       0.0489
     60  CD        81.8150   37.0290   72.1860 C.3    88  ARG88       0.2205
     61  NE        83.0130   37.7790   72.5650 N.pl3  88  ARG88      -0.0865
     62  CZ        82.9990   39.0290   73.0200 C.cat  88  ARG88       0.5346
     63  NH1       81.8490   39.6750   73.1520 N.pl3  88  ARG88       0.1354
     64  NH2       84.1360   39.6320   73.3600 N.pl3  88  ARG88       0.1354
     65  N         77.3750   34.3860   61.7380 N.3   131  VAL131     -0.1245
     66  CA        77.2000   35.7680   62.1620 C.3   131  VAL131      0.1561
     67  C         76.7490   36.4920   60.8900 C.2   131  VAL131      0.2260
     68  O         77.5100   36.5810   59.9250 O.2   131  VAL131     -0.2867
     69  CB        78.5220   36.3880   62.6590 C.3   131  VAL131      0.0252
     70  CG1       78.3510   37.8900   62.8570 C.3   131  VAL131      0.0019
     71  CG2       78.9520   35.7270   63.9560 C.3   131  VAL131      0.0019
     72  N         76.2360   39.6900   59.9720 N.3   133  GLY133     -0.1225
     73  CA        77.1490   40.7350   59.5490 C.3   133  GLY133      0.1811
     74  C         78.3240   40.7530   60.5100 C.2   133  GLY133      0.2280
     75  O         78.1510   41.0680   61.6890 O.2   133  GLY133     -0.2866
     76  N         80.9460   42.3320   62.2450 N.3   135  THR135     -0.1218
     77  CA        81.3500   43.6710   62.6510 C.3   135  THR135      0.1862
     78  C         82.8510   43.9360   62.6640 C.2   135  THR135      0.2287
     79  O         83.2850   45.0610   62.4270 O.2   135  THR135     -0.2866
     80  CB        80.7990   43.9870   64.0590 C.3   135  THR135      0.1770
     81  OG1       79.5060   43.3880   64.2140 O.3   135  THR135     -0.2211
     82  CG2       80.6830   45.4770   64.2600 C.3   135  THR135      0.0375
     83  N         73.6660   35.2280   64.4350 N.3   160  ASP160     -0.1239
     84  CA        73.9620   36.4810   65.1380 C.3   160  ASP160      0.1674
     85  C         73.4920   37.6270   64.2340 C.2   160  ASP160      0.2266
     86  O         74.1160   37.8950   63.2150 O.2   160  ASP160     -0.2867
     87  CB        75.4740   36.5830   65.3620 C.3   160  ASP160      0.1410
     88  CG        75.8840   37.8310   66.1330 C.2   160  ASP160      0.3668
     89  OD1       75.3340   38.9240   65.8650 O.co2 160  ASP160     -0.2456
     90  OD2       76.7840   37.7100   66.9960 O.co2 160  ASP160     -0.2456
     91  N         73.1400   40.9600   65.1480 N.3   162  VAL162     -0.1245
     92  CA        73.4930   42.2440   65.7450 C.3   162  VAL162      0.1561
     93  C         73.6220   43.4200   64.7650 C.2   162  VAL162      0.2260
     94  O         73.1280   44.5140   65.0310 O.2   162  VAL162     -0.2867
     95  CB        74.8140   42.1120   66.5420 C.3   162  VAL162      0.0252
     96  CG1       75.4530   43.4650   66.7340 C.3   162  VAL162      0.0019
     97  CG2       74.5420   41.4580   67.8880 C.3   162  VAL162      0.0019
     98  N         69.4800   36.7270   67.4890 N.3   181  PHE181     -0.1241
     99  CA        69.6160   37.6340   68.6150 C.3   181  PHE181      0.1605
    100  C         70.3710   38.8860   68.2060 C.2   181  PHE181      0.2264
    101  O         71.0550   38.9160   67.1790 O.2   181  PHE181     -0.2867
    102  CB        70.3730   36.9450   69.7580 C.3   181  PHE181      0.0534
    103  CG        71.8430   36.7740   69.4900 C.ar  181  PHE181     -0.0203
    104  CD1       72.7470   37.7850   69.8190 C.ar  181  PHE181     -0.0042
    105  CD2       72.3200   35.6270   68.8610 C.ar  181  PHE181     -0.0042
    106  CE1       74.1030   37.6590   69.5220 C.ar  181  PHE181     -0.0003
    107  CE2       73.6740   35.4920   68.5600 C.ar  181  PHE181     -0.0003
    108  CZ        74.5690   36.5100   68.8910 C.ar  181  PHE181     -0.0000
    109  N         71.4080   48.0110   71.8720 N.3   185  GLN185     -0.1231
    110  CA        72.1750   49.1780   71.4360 C.3   185  GLN185      0.1698
    111  C         72.6920   49.1650   69.9940 C.2   185  GLN185      0.2592
    112  O         73.4400   50.0630   69.6030 O.2   185  GLN185     -0.2718
    113  CB        73.3720   49.3930   72.3700 C.3   185  GLN185      0.0381
    114  CG        74.5630   48.4620   72.0950 C.3   185  GLN185      0.0905
    115  CD        74.4500   47.0890   72.7580 C.2   185  GLN185      0.2608
    116  OE1       73.3830   46.6870   73.2280 O.2   185  GLN185     -0.2717
    117  NE2       75.5630   46.3620   72.7870 N.am  185  GLN185     -0.0878
    118  N         72.2980   48.1730   69.2030 N.am  186  LYS186     -0.1980
    119  CA        72.7840   48.0840   67.8240 C.3   186  LYS186      0.1596
    120  C         71.9440   48.9050   66.8330 C.2   186  LYS186      0.2287
    121  O         71.8510   50.1310   66.9510 O.2   186  LYS186     -0.2864
    122  CB        72.8260   46.6170   67.3800 C.3   186  LYS186      0.0298
    123  CG        73.4340   45.6510   68.3990 C.3   186  LYS186      0.0038
    124  CD        74.8670   46.0100   68.7610 C.3   186  LYS186      0.0206
    125  CE        75.4800   44.9640   69.6980 C.3   186  LYS186      0.1093
    126  NZ        76.9300   45.2270   69.9430 N.3   186  LYS186     -0.1314
    127  N         89.2000   44.8960   65.9480 N.3   317  ILE317     -0.1245
    128  CA        88.9900   43.9560   67.0420 C.3   317  ILE317      0.1561
    129  C         89.2370   42.5360   66.5370 C.2   317  ILE317      0.2260
    130  O         88.9780   42.2270   65.3760 O.2   317  ILE317     -0.2867
    131  CB        87.5550   44.0780   67.6370 C.3   317  ILE317      0.0252
    132  CG1       87.4630   43.2630   68.9320 C.3   317  ILE317      0.0019
    133  CG2       86.5120   43.6090   66.6240 C.3   317  ILE317      0.0019
    134  CD1       86.1230   43.3740   69.6510 C.3   317  ILE317      0.0001
    135  N         86.6400   51.2540   62.3910 N.3   326  ARG326     -0.1245
    136  CA        85.3440   50.6440   62.1640 C.3   326  ARG326      0.1563
    137  C         84.3070   51.7200   62.4480 C.2   326  ARG326      0.2260
    138  O         84.2170   52.2400   63.5680 O.2   326  ARG326     -0.2867
    139  CB        85.1700   49.4190   63.0650 C.3   326  ARG326      0.0307
    140  CG        86.1990   48.3170   62.7800 C.3   326  ARG326      0.0489
    141  CD        85.9000   47.0220   63.5300 C.3   326  ARG326      0.2205
    142  NE        85.9340   47.2050   64.9760 N.pl3 326  ARG326     -0.0865
    143  CZ        84.9990   46.7510   65.8050 C.cat 326  ARG326      0.5346
    144  NH1       83.9540   46.0830   65.3310 N.pl3 326  ARG326      0.1354
    145  NH2       85.1060   46.9730   67.1080 N.pl3 326  ARG326      0.1354
@<TRIPOS>BOND
     1    73    72    1
     2    73    74    1
     3    68    67    2
     4    74    75    2
     5    67    66    1
     6    65    66    1
     7    66    69    1
     8   136   135    1
     9   136   137    1
    10   136   139    1
    11    76    77    1
    12    79    78    2
    13   137   138    2
    14    77    78    1
    15    77    80    1
    16    69    70    1
    17    69    71    1
    18   140   139    1
    19   140   141    1
    20    86    85    2
    21   141   142    1
    22    80    81    1
    23    80    82    1
    24    85    84    1
    25    83    84    1
    26     5     6    1
    27     5     2    1
    28    93    94    2
    29    93    92    1
    30   142   143    2
    31    84    87    1
    32    91    92    1
    33     6     7    1
    34   144   143    1
    35    87    88    1
    36   130   129    2
    37     2     1    1
    38     2     3    1
    39     7     1    1
    40    92    95    1
    41   143   145    1
    42    89    88   ar
    43   127   128    1
    44    43    44    1
    45    88    90   ar
    46    45    44    1
    47    45    46    2
    48    49    51   ar
    49    49    48   ar
    50     3     4    2
    51     3     8   am
    52    47    44    1
    53    47    48    1
    54   129   128    1
    55    95    96    1
    56    95    97    1
    57   133   131    1
    58   120   121    2
    59   120   119    1
    60   128   131    1
    61   101   100    2
    62    51    53   ar
    63    48    50   ar
    64   122   119    1
    65   122   123    1
    66     8     9    1
    67    98    99    1
    68   131   132    1
    69   119   118    1
    70   100    99    1
    71   123   124    1
    72   107   105   ar
    73   107   108   ar
    74    53    52   ar
    75    50    52   ar
    76    99   102    1
    77     9    10    1
    78    54    55    1
    79   124   125    1
    80   105   103   ar
    81   108   106   ar
    82   132   134    1
    83    15    14    2
    84   118   111   am
    85    42    41    1
    86   103   102    1
    87   103   104   ar
    88   106   104   ar
    89   112   111    2
    90   125   126    1
    91    10    11    2
    92    10    12   am
    93    14    13    1
    94   111   110    1
    95    55    56    1
    96    55    58    1
    97    56    57    2
    98    58    59    1
    99    41    40    1
   100    40    39    1
   101    12    13    1
   102    12    18    1
   103    13    16    1
   104   110   109    1
   105   110   113    1
   106    39    36    1
   107    59    60    1
   108    36    35    1
   109    36    37    1
   110    18    17    1
   111   114   113    1
   112   114   115    1
   113    60    61    1
   114    38    37    2
   115    16    17    1
   116    61    62    2
   117   115   117   am
   118   115   116    2
   119    28    27    2
   120    26    27    1
   121    26    25    1
   122    62    63    1
   123    62    64    1
   124    27    29   am
   125    29    30    1
   126    25    21   am
   127    34    33    1
   128    30    33    1
   129    30    31    1
   130    32    31    2
   131    21    22    2
   132    21    20    1
   133    20    23    1
   134    20    19    1
   135    23    24    1
