@<TRIPOS>MOLECULE
tmp/2yrrB00.pdb
 130 120 0 0 0
SMALL
GASTEIGER

@<TRIPOS>ATOM
      1  N         59.1500   44.6670   97.6150 N.3     6  PRO6       -0.2116
      2  CA        60.4700   44.5230   98.2360 C.3     6  PRO6        0.1372
      3  C         61.4830   44.3320   97.1120 C.2     6  PRO6        0.2244
      4  O         62.2230   43.3450   97.0770 O.2     6  PRO6       -0.2868
      5  CB        60.3050   43.2780   99.0950 C.3     6  PRO6        0.0268
      6  CG        59.3850   42.4420   98.2710 C.3     6  PRO6        0.0207
      7  CD        58.3450   43.4470   97.8030 C.3     6  PRO6        0.0892
      8  N         70.3770   41.0750   86.2950 N.3    60  SER60      -0.1202
      9  CA        69.7340   41.2710   87.5950 C.3    60  SER60       0.2020
     10  C         70.5200   40.6280   88.7330 C.2    60  SER60       0.2619
     11  O         71.5650   40.0250   88.5150 O.2    60  SER60      -0.2717
     12  CB        68.3140   40.7000   87.5810 C.3    60  SER60       0.2103
     13  OG        68.3430   39.2900   87.4820 O.3    60  SER60      -0.2182
     14  N         69.9990   40.7600   89.9500 N.am   61  GLY61      -0.1942
     15  CA        70.6710   40.1870   91.1000 C.3    61  GLY61       0.2014
     16  C         70.9400   38.7000   90.9380 C.2    61  GLY61       0.2639
     17  O         71.9600   38.1910   91.4050 O.2    61  GLY61      -0.2714
     18  N         70.0260   38.0030   90.2710 N.am   62  SER62      -0.1949
     19  CA        70.1720   36.5710   90.0560 C.3    62  SER62       0.1924
     20  C         71.4340   36.2320   89.2740 C.2    62  SER62       0.2314
     21  O         72.0320   35.1790   89.4900 O.2    62  SER62      -0.2863
     22  CB        68.9410   36.0220   89.3420 C.3    62  SER62       0.2116
     23  OG        67.8170   36.0870   90.2020 O.3    62  SER62      -0.2180
     24  N         74.1270   36.2760   91.6780 N.3    65  MET65      -0.1245
     25  CA        74.0470   35.0460   92.4540 C.3    65  MET65       0.1570
     26  C         74.7140   33.8860   91.7150 C.2    65  MET65       0.2261
     27  O         75.6130   33.2290   92.2410 O.2    65  MET65      -0.2867
     28  CB        72.5780   34.6960   92.7230 C.3    65  MET65       0.0387
     29  CG        72.3720   33.4410   93.5610 C.3    65  MET65       0.0595
     30  SD        70.6290   32.9950   93.7430 S.3    65  MET65      -0.1393
     31  CE        70.1210   34.1290   95.0480 C.3    65  MET65       0.0692
     32  N         64.7520   32.4510   98.3060 N.3    85  PHE85      -0.1241
     33  CA        65.9860   32.8450   97.6430 C.3    85  PHE85       0.1605
     34  C         67.1890   31.9720   97.9390 C.2    85  PHE85       0.2264
     35  O         68.0280   31.7690   97.0650 O.2    85  PHE85      -0.2867
     36  CB        66.2720   34.3210   97.9100 C.3    85  PHE85       0.0534
     37  CG        65.2760   35.2340   97.2560 C.ar   85  PHE85      -0.0203
     38  CD1       64.2040   35.7550   97.9740 C.ar   85  PHE85      -0.0042
     39  CD2       65.3760   35.5220   95.8980 C.ar   85  PHE85      -0.0042
     40  CE1       63.2440   36.5480   97.3480 C.ar   85  PHE85      -0.0003
     41  CE2       64.4200   36.3150   95.2610 C.ar   85  PHE85      -0.0003
     42  CZ        63.3540   36.8270   95.9870 C.ar   85  PHE85      -0.0000
     43  N         66.9390   29.2020   95.7870 N.3    88  ARG88      -0.1245
     44  CA        67.4000   29.4830   94.4260 C.3    88  ARG88       0.1563
     45  C         68.9100   29.2210   94.3680 C.2    88  ARG88       0.2260
     46  O         69.4260   28.7080   93.3770 O.2    88  ARG88      -0.2867
     47  CB        67.0970   30.9390   94.0360 C.3    88  ARG88       0.0307
     48  CG        67.5410   31.3200   92.6200 C.3    88  ARG88       0.0489
     49  CD        67.0400   32.7070   92.2080 C.3    88  ARG88       0.2205
     50  NE        65.5800   32.7990   92.2830 N.pl3  88  ARG88      -0.0865
     51  CZ        64.8660   33.8590   91.9140 C.cat  88  ARG88       0.5346
     52  NH1       65.4640   34.9370   91.4300 N.pl3  88  ARG88       0.1354
     53  NH2       63.5450   33.8470   92.0420 N.pl3  88  ARG88       0.1354
     54  N         71.9550   33.5070  102.6880 N.3   131  VAL131     -0.1245
     55  CA        71.2790   34.7170  102.2270 C.3   131  VAL131      0.1561
     56  C         71.2100   35.5810  103.4870 C.2   131  VAL131      0.2260
     57  O         70.6220   35.1720  104.4900 O.2   131  VAL131     -0.2867
     58  CB        69.8330   34.4450  101.7180 C.3   131  VAL131      0.0252
     59  CG1       69.1260   35.7650  101.4410 C.3   131  VAL131      0.0019
     60  CG2       69.8650   33.6100  100.4310 C.3   131  VAL131      0.0019
     61  N         69.6100   38.4430  104.1110 N.3   133  GLY133     -0.1225
     62  CA        68.2350   38.7910  104.4200 C.3   133  GLY133      0.1811
     63  C         67.2930   38.0590  103.4850 C.2   133  GLY133      0.2280
     64  O         67.2380   38.3650  102.2960 O.2   133  GLY133     -0.2866
     65  N         64.2820   37.6950  101.7720 N.3   135  THR135     -0.1218
     66  CA        63.1640   38.5290  101.3640 C.3   135  THR135      0.1862
     67  C         61.8140   37.8170  101.3460 C.2   135  THR135      0.2287
     68  O         60.7780   38.4510  101.5400 O.2   135  THR135     -0.2866
     69  CB        63.4410   39.1080   99.9670 C.3   135  THR135      0.1770
     70  OG1       64.8250   39.4690   99.8850 O.3   135  THR135     -0.2211
     71  CG2       62.5930   40.3460   99.7130 C.3   135  THR135      0.0375
     72  N         74.4640   36.2830   99.9090 N.3   160  ASP160     -0.1239
     73  CA        73.4870   37.0770   99.1590 C.3   160  ASP160      0.1674
     74  C         73.1990   38.3050  100.0290 C.2   160  ASP160      0.2266
     75  O         72.6030   38.1760  101.0990 O.2   160  ASP160     -0.2867
     76  CB        72.2030   36.2630   98.9840 C.3   160  ASP160      0.1410
     77  CG        71.1000   37.0310   98.2730 C.2   160  ASP160      0.3668
     78  OD1       70.9110   38.2300   98.5670 O.co2 160  ASP160     -0.2456
     79  OD2       70.4070   36.4120   97.4330 O.co2 160  ASP160     -0.2456
     80  N         71.4540   41.1310   98.9650 N.3   162  VAL162     -0.1231
     81  CA        70.4110   41.9400   98.3520 C.3   162  VAL162      0.1692
     82  C         69.5720   42.8290   99.2670 C.2   162  VAL162      0.2592
     83  O         69.3510   43.9930   98.9490 O.2   162  VAL162     -0.2718
     84  CB        69.4580   41.0580   97.5390 C.3   162  VAL162      0.0266
     85  CG1       68.2260   41.8480   97.1490 C.3   162  VAL162      0.0020
     86  CG2       70.1750   40.5430   96.3070 C.3   162  VAL162      0.0020
     87  N         69.0960   42.2900  100.3860 N.am  163  THR163     -0.1953
     88  CA        68.2640   43.0710  101.3030 C.3   163  THR163      0.1897
     89  C         69.0350   43.7620  102.4170 C.2   163  THR163      0.2313
     90  O         68.4300   44.3150  103.3410 O.2   163  THR163     -0.2863
     91  CB        67.1980   42.1940  101.9820 C.3   163  THR163      0.1794
     92  OG1       67.8400   41.1990  102.7890 O.3   163  THR163     -0.2208
     93  CG2       66.3470   41.5130  100.9640 C.3   163  THR163      0.0378
     94  N         76.9700   39.8450   96.7910 N.3   181  PHE181     -0.1241
     95  CA        76.3150   40.4400   95.6380 C.3   181  PHE181      0.1605
     96  C         74.9560   41.0300   95.9850 C.2   181  PHE181      0.2264
     97  O         74.4150   40.8100   97.0740 O.2   181  PHE181     -0.2867
     98  CB        76.1450   39.3820   94.5480 C.3   181  PHE181      0.0534
     99  CG        75.0400   38.4040   94.8250 C.ar  181  PHE181     -0.0203
    100  CD1       73.7320   38.6930   94.4480 C.ar  181  PHE181     -0.0042
    101  CD2       75.2960   37.2220   95.5120 C.ar  181  PHE181     -0.0042
    102  CE1       72.6910   37.8200   94.7530 C.ar  181  PHE181     -0.0003
    103  CE2       74.2610   36.3410   95.8220 C.ar  181  PHE181     -0.0003
    104  CZ        72.9590   36.6420   95.4430 C.ar  181  PHE181     -0.0000
    105  N         68.3210   47.4260   91.8780 N.3   185  GLN185     -0.1231
    106  CA        66.9830   47.8840   92.2510 C.3   185  GLN185      0.1698
    107  C         66.4960   47.5810   93.6710 C.2   185  GLN185      0.2592
    108  O         65.3180   47.7750   93.9730 O.2   185  GLN185     -0.2718
    109  CB        65.9560   47.3380   91.2510 C.3   185  GLN185      0.0381
    110  CG        65.5000   45.8950   91.5020 C.3   185  GLN185      0.0905
    111  CD        66.5610   44.8370   91.2140 C.2   185  GLN185      0.2608
    112  OE1       67.6990   45.1440   90.8650 O.2   185  GLN185     -0.2717
    113  NE2       66.1780   43.5740   91.3670 N.am  185  GLN185     -0.0878
    114  N         67.3890   47.1120   94.5360 N.am  186  LYS186     -0.1980
    115  CA        67.0020   46.8040   95.9030 C.3   186  LYS186      0.1596
    116  C         67.3030   47.9940   96.8130 C.2   186  LYS186      0.2287
    117  O         66.8460   49.1050   96.5450 O.2   186  LYS186     -0.2864
    118  CB        67.7290   45.5420   96.3790 C.3   186  LYS186      0.0298
    119  CG        67.4810   44.3310   95.4770 C.3   186  LYS186      0.0038
    120  CD        66.0020   43.9590   95.4710 C.3   186  LYS186      0.0206
    121  CE        65.6780   42.9190   94.4060 C.3   186  LYS186      0.1093
    122  NZ        66.3680   41.6620   94.6940 N.3   186  LYS186     -0.1314
    123  N         63.2830   49.0710  101.7430 N.3   330  MET330     -0.1245
    124  CA        64.6580   49.2480  101.3250 C.3   330  MET330      0.1570
    125  C         64.7310   50.4040  100.3520 C.2   330  MET330      0.2261
    126  O         63.8300   50.6000   99.5320 O.2   330  MET330     -0.2867
    127  CB        65.2120   47.9540  100.7240 C.3   330  MET330      0.0387
    128  CG        64.3080   47.2350   99.7660 C.3   330  MET330      0.0595
    129  SD        64.8160   45.5110   99.6320 S.3   330  MET330     -0.1393
    130  CE        63.3430   44.7040   99.7350 C.3   330  MET330      0.0692
@<TRIPOS>BOND
     1     8     9    1
     2    13    12    1
     3    12     9    1
     4     9    10    1
     5    11    10    2
     6    10    14   am
     7    20    21    2
     8    20    19    1
     9    22    19    1
    10    22    23    1
    11    14    15    1
    12    19    18    1
    13    18    16   am
    14   112   111    2
    15    16    15    1
    16    16    17    2
    17   111   113   am
    18   111   110    1
    19   109   110    1
    20   109   106    1
    21    52    51    1
    22    24    25    1
    23    26    27    2
    24    26    25    1
    25   105   106    1
    26    51    53    1
    27    51    50    2
    28    49    50    1
    29    49    48    1
    30   106   107    1
    31    25    28    1
    32    48    47    1
    33    28    29    1
    34    46    45    2
    35    29    30    1
    36   107   108    2
    37   107   114   am
    38    30    31    1
    39    47    44    1
    40    45    44    1
    41   121   122    1
    42   121   120    1
    43    44    43    1
    44   100   102   ar
    45   100    99   ar
    46   114   115    1
    47    98    99    1
    48    98    95    1
    49   102   104   ar
    50    99   101   ar
    51    41    39   ar
    52    41    42   ar
    53   104   103   ar
    54   120   119    1
    55   119   118    1
    56   101   103   ar
    57    95    96    1
    58    95    94    1
    59    39    37   ar
    60   115   118    1
    61   115   116    1
    62    96    97    2
    63    42    40   ar
    64    86    84    1
    65   117   116    2
    66    35    34    2
    67     4     3    2
    68     3     2    1
    69    85    84    1
    70    37    36    1
    71    37    38   ar
    72    40    38   ar
    73    79    77   ar
    74    84    81    1
    75     1     7    1
    76     1     2    1
    77    33    36    1
    78    33    34    1
    79    33    32    1
    80     7     6    1
    81     2     5    1
    82     6     5    1
    83    77    78   ar
    84    77    76    1
    85    81    80    1
    86    81    82    1
    87    83    82    2
    88    76    73    1
    89    73    72    1
    90    73    74    1
    91    82    87   am
    92   126   125    2
    93   129   130    1
    94   129   128    1
    95    71    69    1
    96   128   127    1
    97    70    69    1
    98    69    66    1
    99    74    75    2
   100   125   124    1
   101    87    88    1
   102    60    58    1
   103   127   124    1
   104    93    91    1
   105    88    91    1
   106    88    89    1
   107   124   123    1
   108    67    66    1
   109    67    68    2
   110    66    65    1
   111    59    58    1
   112    58    55    1
   113    91    92    1
   114    55    54    1
   115    55    56    1
   116    64    63    2
   117    89    90    2
   118    63    62    1
   119    56    57    2
   120    61    62    1
