@<TRIPOS>MOLECULE
tmp/2ys6A00.pdb
 137 128 0 0 0
SMALL
GASTEIGER

@<TRIPOS>ATOM
      1  N          8.9990  -30.5690   32.1810 N.3   110  LYS110     -0.1245
      2  CA         9.6450  -29.7890   33.2650 C.3   110  LYS110      0.1561
      3  C         10.5530  -30.6960   34.1000 C.2   110  LYS110      0.2260
      4  O         11.6220  -30.2750   34.5490 O.2   110  LYS110     -0.2867
      5  CB         8.6290  -28.9630   34.1110 C.3   110  LYS110      0.0271
      6  CG         9.3900  -28.2380   35.3190 C.3   110  LYS110      0.0035
      7  CD         8.4850  -27.8190   36.5470 C.3   110  LYS110      0.0206
      8  CE         8.6020  -26.3250   36.7250 C.3   110  LYS110      0.1093
      9  NZ         7.9260  -25.7860   38.0010 N.3   110  LYS110     -0.1314
     10  N         14.9810  -23.5530   40.9620 N.3   125  ALA125     -0.1245
     11  CA        14.2680  -24.0620   42.1370 C.3   125  ALA125      0.1562
     12  C         14.4090  -25.5420   42.2180 C.2   125  ALA125      0.2260
     13  O         14.2070  -26.2180   41.2070 O.2   125  ALA125     -0.2867
     14  CB        12.8070  -23.7020   42.1060 C.3   125  ALA125      0.0290
     15  N          6.6900  -25.0760   48.0760 N.3   148  VAL148     -0.1245
     16  CA         5.5610  -25.3220   47.1990 C.3   148  VAL148      0.1561
     17  C          5.2170  -26.8150   47.1960 C.2   148  VAL148      0.2260
     18  O          6.1350  -27.6690   47.0880 O.2   148  VAL148     -0.2867
     19  CB         5.8310  -24.8310   45.7700 C.3   148  VAL148      0.0252
     20  CG1        4.5440  -24.8570   44.8910 C.3   148  VAL148      0.0019
     21  CG2        6.4350  -23.4580   45.8020 C.3   148  VAL148      0.0019
     22  N          2.5300  -29.3960   45.2460 N.3   150  LYS150     -0.1245
     23  CA         1.6680  -29.4060   44.0860 C.3   150  LYS150      0.1561
     24  C          1.0000  -30.7800   43.9550 C.2   150  LYS150      0.2260
     25  O          1.6880  -31.7920   43.9230 O.2   150  LYS150     -0.2867
     26  CB         2.4990  -29.1360   42.8320 C.3   150  LYS150      0.0271
     27  CG         3.2030  -27.7870   42.7980 C.3   150  LYS150      0.0035
     28  CD         3.4990  -27.3870   41.3710 C.3   150  LYS150      0.0206
     29  CE         4.3930  -26.1600   41.2630 C.3   150  LYS150      0.1093
     30  NZ         4.4630  -25.6500   39.8510 N.3   150  LYS150     -0.1314
     31  N          8.3930  -28.2160   45.3590 N.3   188  GLU188     -0.1231
     32  CA         9.2890  -27.2550   44.7800 C.3   188  GLU188      0.1699
     33  C          9.7770  -26.1520   45.7270 C.2   188  GLU188      0.2592
     34  O          9.0710  -25.7270   46.6450 O.2   188  GLU188     -0.2718
     35  CB         8.5950  -26.6770   43.5770 C.3   188  GLU188      0.0402
     36  CG         8.3440  -27.7270   42.5230 C.3   188  GLU188      0.1161
     37  CD         8.1730  -27.1260   41.1360 C.2   188  GLU188      0.3649
     38  OE1        7.3660  -26.1450   40.9840 O.co2 188  GLU188     -0.2457
     39  OE2        8.8250  -27.6580   40.2030 O.co2 188  GLU188     -0.2457
     40  N         10.9990  -25.6900   45.5170 N.am  189  GLU189     -0.1966
     41  CA        11.5720  -24.6230   46.3390 C.3   189  GLU189      0.1733
     42  C         10.7510  -23.3730   46.1140 C.2   189  GLU189      0.2616
     43  O         10.4720  -23.0590   45.0050 O.2   189  GLU189     -0.2715
     44  CB        13.0090  -24.3720   45.9160 C.3   189  GLU189      0.0429
     45  CG        13.8830  -23.6740   46.9430 C.3   189  GLU189      0.1163
     46  CD        15.3350  -23.3270   46.4430 C.2   189  GLU189      0.3649
     47  OE1       15.9310  -22.4130   47.0840 O.co2 189  GLU189     -0.2457
     48  OE2       15.8670  -23.9600   45.4780 O.co2 189  GLU189     -0.2457
     49  N         10.3450  -22.6360   47.1470 N.am  190  TYR190     -0.1960
     50  CA         9.6870  -21.3520   46.8490 C.3   190  TYR190      0.1771
     51  C         10.7770  -20.3040   46.6150 C.2   190  TYR190      0.2619
     52  O         11.7860  -20.2760   47.2910 O.2   190  TYR190     -0.2715
     53  CB         8.6820  -20.9490   47.9690 C.3   190  TYR190      0.0574
     54  CG         7.9550  -19.5940   47.8230 C.ar  190  TYR190     -0.0198
     55  CD1        7.1890  -19.3060   46.6870 C.ar  190  TYR190     -0.0009
     56  CD2        8.0310  -18.6320   48.8420 C.ar  190  TYR190     -0.0009
     57  CE1        6.5100  -18.0770   46.5560 C.ar  190  TYR190      0.0417
     58  CE2        7.3950  -17.3980   48.7170 C.ar  190  TYR190      0.0417
     59  CZ         6.6370  -17.1230   47.5740 C.ar  190  TYR190      0.1957
     60  OH         5.9910  -15.8850   47.4170 O.3   190  TYR190     -0.2866
     61  N         10.6180  -19.4950   45.5940 N.am  191  LEU191     -0.1977
     62  CA        11.6390  -18.5290   45.2940 C.3   191  LEU191      0.1596
     63  C         11.0290  -17.2040   45.3900 C.2   191  LEU191      0.2287
     64  O          9.8900  -17.0530   45.0270 O.2   191  LEU191     -0.2864
     65  CB        12.2150  -18.7400   43.8720 C.3   191  LEU191      0.0297
     66  CG        13.1340  -19.9420   43.5810 C.3   191  LEU191      0.0022
     67  CD1       13.4600  -19.9890   42.1050 C.3   191  LEU191      0.0001
     68  CD2       14.4000  -19.8510   44.4020 C.3   191  LEU191      0.0001
     69  N         10.4630  -11.6210   38.6180 N.3   195  GLU195     -0.1245
     70  CA        10.4660  -12.4940   37.4250 C.3   195  GLU195      0.1567
     71  C         10.7970  -11.7390   36.1390 C.2   195  GLU195      0.2260
     72  O         10.4500  -10.5570   35.9690 O.2   195  GLU195     -0.2867
     73  CB         9.1370  -13.2250   37.2260 C.3   195  GLU195      0.0388
     74  CG         8.7650  -14.1640   38.3790 C.3   195  GLU195      0.1160
     75  CD         7.4440  -14.9280   38.1270 C.2   195  GLU195      0.3649
     76  OE1        7.2860  -15.5750   37.0580 O.co2 195  GLU195     -0.2457
     77  OE2        6.5380  -14.8460   39.0260 O.co2 195  GLU195     -0.2457
     78  N          1.7580  -12.6310   34.4450 N.3   217  LYS217     -0.1231
     79  CA         1.0590  -13.8940   34.2310 C.3   217  LYS217      0.1693
     80  C         -0.2870  -14.0190   34.8860 C.2   217  LYS217      0.2591
     81  O         -1.1710  -14.6810   34.3450 O.2   217  LYS217     -0.2718
     82  CB         1.9430  -15.0680   34.6600 C.3   217  LYS217      0.0285
     83  CG         3.1330  -15.2430   33.7120 C.3   217  LYS217      0.0035
     84  CD         3.2860  -16.6750   33.2130 C.3   217  LYS217      0.0206
     85  CE         4.7700  -16.9280   32.9240 C.3   217  LYS217      0.1093
     86  NZ         5.4170  -15.8100   32.1120 N.3   217  LYS217     -0.1314
     87  N         -0.4350  -13.4300   36.0590 N.am  218  ARG218     -0.1980
     88  CA        -1.7080  -13.4080   36.7240 C.3   218  ARG218      0.1597
     89  C         -2.7480  -12.5670   35.9760 C.2   218  ARG218      0.2287
     90  O         -2.4260  -11.5440   35.3230 O.2   218  ARG218     -0.2864
     91  CB        -1.5440  -12.8500   38.1310 C.3   218  ARG218      0.0334
     92  CG        -0.2980  -13.3110   38.8440 C.3   218  ARG218      0.0492
     93  CD        -0.3970  -14.7280   39.3200 C.3   218  ARG218      0.2205
     94  NE        -1.2180  -14.8700   40.5000 N.pl3 218  ARG218     -0.0865
     95  CZ        -1.4920  -16.0350   41.0980 C.cat 218  ARG218      0.5346
     96  NH1       -0.9870  -17.2050   40.6460 N.pl3 218  ARG218      0.1354
     97  NH2       -2.2750  -16.0150   42.1800 N.pl3 218  ARG218      0.1354
     98  N         -3.1740  -17.9730   37.0740 N.3   227  ASN227     -0.1225
     99  CA        -2.1310  -17.7950   36.1020 C.3   227  ASN227      0.1785
    100  C         -2.6310  -17.9090   34.6640 C.2   227  ASN227      0.2597
    101  O         -3.5730  -18.6100   34.3770 O.2   227  ASN227     -0.2718
    102  CB        -1.0250  -18.8480   36.3730 C.3   227  ASN227      0.1169
    103  CG        -0.0750  -18.4170   37.5140 C.2   227  ASN227      0.2627
    104  OD1        0.4150  -17.2670   37.5580 O.2   227  ASN227     -0.2716
    105  ND2        0.1940  -19.3370   38.4370 N.am  227  ASN227     -0.0877
    106  N         -1.9690  -17.2070   33.7370 N.am  228  THR228     -0.1953
    107  CA        -2.4700  -17.1500   32.3450 C.3   228  THR228      0.1897
    108  C         -1.3010  -17.4110   31.4050 C.2   228  THR228      0.2313
    109  O         -0.2140  -17.7060   31.8850 O.2   228  THR228     -0.2863
    110  CB        -3.0700  -15.7500   32.0340 C.3   228  THR228      0.1794
    111  OG1       -2.0490  -14.7540   32.1610 O.3   228  THR228     -0.2208
    112  CG2       -4.2220  -15.4220   32.9940 C.3   228  THR228      0.0378
    113  N         13.7020  -15.9050   37.6920 N.3   276  MET276     -0.1245
    114  CA        13.5760  -15.1210   38.8960 C.3   276  MET276      0.1570
    115  C         14.9270  -14.4890   39.2820 C.2   276  MET276      0.2261
    116  O         15.9130  -15.1760   39.4210 O.2   276  MET276     -0.2867
    117  CB        13.1200  -15.9810   40.0770 C.3   276  MET276      0.0387
    118  CG        12.7150  -15.1920   41.3350 C.3   276  MET276      0.0595
    119  SD        11.0280  -14.5410   41.1090 S.3   276  MET276     -0.1393
    120  CE        10.0460  -16.0640   41.2330 C.3   276  MET276      0.0692
    121  N         12.9120  -20.6590   36.4540 N.3   285  ILE285     -0.1231
    122  CA        11.5570  -21.1830   36.7880 C.3   285  ILE285      0.1692
    123  C         11.1330  -22.3050   35.8140 C.2   285  ILE285      0.2591
    124  O         10.7870  -23.4540   36.1810 O.2   285  ILE285     -0.2718
    125  CB        10.4530  -20.0690   36.6770 C.3   285  ILE285      0.0266
    126  CG1       10.9020  -18.7120   37.2610 C.3   285  ILE285      0.0019
    127  CG2        9.1500  -20.5650   37.3030 C.3   285  ILE285      0.0020
    128  CD1       10.0040  -18.1080   38.3590 C.3   285  ILE285      0.0001
    129  N         11.1730  -21.9400   34.5380 N.am  286  GLU286     -0.1979
    130  CA        10.9640  -22.8690   33.4200 C.3   286  GLU286      0.1602
    131  C         11.7760  -22.4070   32.2030 C.2   286  GLU286      0.2287
    132  O         12.1790  -21.2730   32.1030 O.2   286  GLU286     -0.2864
    133  CB         9.4370  -22.9350   33.0690 C.3   286  GLU286      0.0415
    134  CG         8.8880  -21.7620   32.1340 C.3   286  GLU286      0.1163
    135  CD         8.3630  -20.5210   32.8580 C.2   286  GLU286      0.3649
    136  OE1        8.2420  -19.3910   32.2050 O.co2 286  GLU286     -0.2457
    137  OE2        8.0390  -20.6670   34.0710 O.co2 286  GLU286     -0.2457
@<TRIPOS>BOND
     1   108   109    2
     2   108   107    1
     3   110   111    1
     4   110   107    1
     5   110   112    1
     6   132   131    2
     7    86    85    1
     8   134   135    1
     9   134   133    1
    10     1     2    1
    11   131   130    1
    12   136   135   ar
    13   107   106    1
    14   135   137   ar
    15    85    84    1
    16   133   130    1
    17    84    83    1
    18     2     3    1
    19     2     5    1
    20   130   129    1
    21    83    82    1
    22   106   100   am
    23     3     4    2
    24     5     6    1
    25    79    78    1
    26    79    82    1
    27    79    80    1
    28    81    80    2
    29   101   100    2
    30   129   123   am
    31   100    99    1
    32    80    87   am
    33     6     7    1
    34    90    89    2
    35   123   124    2
    36   123   122    1
    37    72    71    2
    38    89    88    1
    39    87    88    1
    40    99   102    1
    41    99    98    1
    42    71    70    1
    43   102   103    1
    44   121   122    1
    45     7     8    1
    46   125   122    1
    47   125   126    1
    48   125   127    1
    49    88    91    1
    50     8     9    1
    51    76    75   ar
    52    73    70    1
    53    73    74    1
    54   126   128    1
    55    70    69    1
    56   103   104    2
    57   103   105   am
    58   113   114    1
    59    75    74    1
    60    75    77   ar
    61    91    92    1
    62    92    93    1
    63   114   115    1
    64   114   117    1
    65   115   116    2
    66    93    94    1
    67    30    29    1
    68   117   118    1
    69    39    37   ar
    70    94    95    2
    71    96    95    1
    72    10    11    1
    73    38    37   ar
    74    95    97    1
    75   119   120    1
    76   119   118    1
    77    37    36    1
    78    13    12    2
    79    29    28    1
    80    28    27    1
    81    67    66    1
    82    14    11    1
    83    11    12    1
    84    36    35    1
    85    27    26    1
    86    26    23    1
    87    35    32    1
    88    66    65    1
    89    66    68    1
    90    65    62    1
    91    25    24    2
    92    24    23    1
    93    23    22    1
    94    32    31    1
    95    32    33    1
    96    20    19    1
    97    43    42    2
    98    64    63    2
    99    62    63    1
   100    62    61    1
   101    48    46   ar
   102    40    33   am
   103    40    41    1
   104    61    51   am
   105    33    34    2
   106    19    21    1
   107    19    16    1
   108    44    41    1
   109    44    45    1
   110    42    41    1
   111    42    49   am
   112    46    45    1
   113    46    47   ar
   114    57    55   ar
   115    57    59   ar
   116    51    50    1
   117    51    52    2
   118    55    54   ar
   119    50    49    1
   120    50    53    1
   121    18    17    2
   122    17    16    1
   123    16    15    1
   124    60    59    1
   125    59    58   ar
   126    54    53    1
   127    54    56   ar
   128    58    56   ar
