@<TRIPOS>MOLECULE
tmp/2ytzA00.pdb
 208 204 0 0 0
SMALL
GASTEIGER

@<TRIPOS>ATOM
      1  N         26.8750  135.8950   18.8970 N.3    25  VAL25      -0.1231
      2  CA        25.5090  135.3850   18.8810 C.3    25  VAL25       0.1692
      3  C         24.6620  136.5110   18.2990 C.2    25  VAL25       0.2592
      4  O         24.6690  137.6360   18.8120 O.2    25  VAL25      -0.2718
      5  CB        25.0110  135.0190   20.2950 C.3    25  VAL25       0.0266
      6  CG1       23.5850  134.4890   20.2260 C.3    25  VAL25       0.0020
      7  CG2       25.9250  133.9670   20.9100 C.3    25  VAL25       0.0020
      8  N         23.9510  136.2080   17.2170 N.am   26  PHE26      -0.1962
      9  CA        23.1360  137.2010   16.5330 C.3    26  PHE26       0.1771
     10  C         21.9220  137.6940   17.2970 C.2    26  PHE26       0.2620
     11  O         21.2560  136.9410   18.0060 O.2    26  PHE26      -0.2715
     12  CB        22.6680  136.6680   15.1800 C.3    26  PHE26       0.0574
     13  CG        22.0460  137.7170   14.3060 C.ar   26  PHE26      -0.0200
     14  CD1       22.8410  138.5390   13.5010 C.ar   26  PHE26      -0.0042
     15  CD2       20.6690  137.9130   14.3070 C.ar   26  PHE26      -0.0042
     16  CE1       22.2710  139.5430   12.7120 C.ar   26  PHE26      -0.0003
     17  CE2       20.0930  138.9160   13.5210 C.ar   26  PHE26      -0.0003
     18  CZ        20.8960  139.7290   12.7240 C.ar   26  PHE26      -0.0000
     19  N         21.6470  138.9830   17.1360 N.am   27  TYR27      -0.1960
     20  CA        20.4960  139.6310   17.7520 C.3    27  TYR27       0.1771
     21  C         20.2340  140.9610   17.0720 C.2    27  TYR27       0.2619
     22  O         21.0030  141.9040   17.2370 O.2    27  TYR27      -0.2715
     23  CB        20.7070  139.8960   19.2360 C.3    27  TYR27       0.0574
     24  CG        19.5620  140.7000   19.8140 C.ar   27  TYR27      -0.0198
     25  CD1       18.3120  140.1170   20.0230 C.ar   27  TYR27      -0.0009
     26  CD2       19.7060  142.0610   20.0870 C.ar   27  TYR27      -0.0009
     27  CE1       17.2350  140.8660   20.4870 C.ar   27  TYR27       0.0417
     28  CE2       18.6350  142.8220   20.5500 C.ar   27  TYR27       0.0417
     29  CZ        17.4040  142.2180   20.7470 C.ar   27  TYR27       0.1957
     30  OH        16.3420  142.9760   21.1910 O.3    27  TYR27      -0.2866
     31  N         19.1490  141.0380   16.3110 N.am   28  ASN28      -0.1972
     32  CA        18.8020  142.2760   15.6270 C.3    28  ASN28       0.1688
     33  C         17.6530  142.9530   16.3520 C.2    28  ASN28       0.2292
     34  O         16.5320  142.4490   16.3600 O.2    28  ASN28      -0.2864
     35  CB        18.3910  142.0050   14.1810 C.3    28  ASN28       0.1181
     36  CG        18.1630  143.2820   13.3960 C.2    28  ASN28       0.2629
     37  OD1       18.0850  144.3690   13.9680 O.2    28  ASN28      -0.2716
     38  ND2       18.0450  143.1560   12.0800 N.am   28  ASN28      -0.0877
     39  N          8.8060  140.1600   16.2050 N.3    35  ARG35      -0.1245
     40  CA         8.4790  139.2730   17.3190 C.3    35  ARG35       0.1563
     41  C          7.2260  139.7240   18.0630 C.2    35  ARG35       0.2260
     42  O          6.5330  138.9040   18.6720 O.2    35  ARG35      -0.2867
     43  CB         9.6730  139.1450   18.2750 C.3    35  ARG35       0.0307
     44  CG        10.8710  138.4080   17.6530 C.3    35  ARG35       0.0489
     45  CD        12.0320  138.2330   18.6220 C.3    35  ARG35       0.2205
     46  NE        12.7640  139.4710   18.8790 N.pl3  35  ARG35      -0.0865
     47  CZ        13.7670  139.9230   18.1310 C.cat  35  ARG35       0.5346
     48  NH1       14.1660  139.2390   17.0700 N.pl3  35  ARG35       0.1354
     49  NH2       14.3780  141.0580   18.4480 N.pl3  35  ARG35       0.1354
     50  N         10.9190  127.5110   18.1970 N.3    52  ASP52      -0.1225
     51  CA        11.7090  128.6270   17.6840 C.3    52  ASP52       0.1805
     52  C         12.8850  127.9100   17.0060 C.2    52  ASP52       0.2598
     53  O         13.9380  127.7270   17.6120 O.2    52  ASP52      -0.2718
     54  CB        12.1870  129.5080   18.8520 C.3    52  ASP52       0.1424
     55  CG        13.0210  130.7050   18.3980 C.2    52  ASP52       0.3668
     56  OD1       13.1690  130.9260   17.1740 O.co2  52  ASP52      -0.2456
     57  OD2       13.5340  131.4360   19.2750 O.co2  52  ASP52      -0.2456
     58  N         12.6840  127.4930   15.7560 N.am   53  ALA53      -0.1966
     59  CA        13.6830  126.7420   14.9800 C.3    53  ALA53       0.1728
     60  C         15.1230  127.2250   15.0560 C.2    53  ALA53       0.2616
     61  O         16.0170  126.4420   15.3480 O.2    53  ALA53      -0.2715
     62  CB        13.2450  126.6530   13.5230 C.3    53  ALA53       0.0334
     63  N         15.3520  128.5030   14.7850 N.am   54  LEU54      -0.1963
     64  CA        16.6950  129.0660   14.8340 C.3    54  LEU54       0.1728
     65  C         16.6600  130.1930   15.8700 C.2    54  LEU54       0.2617
     66  O         16.4950  131.3720   15.5450 O.2    54  LEU54      -0.2715
     67  CB        17.0850  129.5760   13.4420 C.3    54  LEU54       0.0311
     68  CG        16.9440  128.5190   12.3310 C.3    54  LEU54       0.0022
     69  CD1       15.5050  128.5020   11.8490 C.3    54  LEU54       0.0001
     70  CD2       17.8570  128.8310   11.1610 C.3    54  LEU54       0.0001
     71  N         16.8340  129.7930   17.1260 N.am   55  SER55      -0.1936
     72  CA        16.7440  130.6770   18.2800 C.3    55  SER55       0.2055
     73  C         17.8070  131.7560   18.5670 C.2    55  SER55       0.2643
     74  O         17.4750  132.8030   19.1250 O.2    55  SER55      -0.2714
     75  CB        16.5470  129.8030   19.5250 C.3    55  SER55       0.2130
     76  OG        15.7390  130.4650   20.4830 O.3    55  SER55      -0.2179
     77  N         19.0630  131.5310   18.1950 N.am   56  ALA56      -0.1963
     78  CA        20.1190  132.5100   18.4810 C.3    56  ALA56       0.1728
     79  C         20.1790  132.8100   19.9970 C.2    56  ALA56       0.2616
     80  O         20.5370  131.9310   20.7800 O.2    56  ALA56      -0.2715
     81  CB        19.8870  133.7910   17.6890 C.3    56  ALA56       0.0334
     82  N         19.8330  134.0280   20.4190 N.am   57  THR57      -0.1951
     83  CA        19.8710  134.3740   21.8480 C.3    57  THR57       0.1897
     84  C         18.7600  133.6870   22.6350 C.2    57  THR57       0.2313
     85  O         18.8190  133.6100   23.8570 O.2    57  THR57      -0.2863
     86  CB        19.7090  135.8920   22.0970 C.3    57  THR57       0.1794
     87  OG1       18.4060  136.3070   21.6680 O.3    57  THR57      -0.2208
     88  CG2       20.7760  136.6830   21.3550 C.3    57  THR57       0.0378
     89  N         15.7050  134.7720   22.4620 N.3    59  ILE59      -0.1231
     90  CA        14.7260  135.8240   22.6930 C.3    59  ILE59       0.1692
     91  C         13.3020  135.5060   22.2170 C.2    59  ILE59       0.2591
     92  O         12.3420  135.6870   22.9640 O.2    59  ILE59      -0.2718
     93  CB        15.2160  137.1520   22.0570 C.3    59  ILE59       0.0266
     94  CG1       14.1570  138.2390   22.2160 C.3    59  ILE59       0.0019
     95  CG2       15.5470  136.9370   20.5970 C.3    59  ILE59       0.0020
     96  CD1       13.7660  138.4930   23.6370 C.3    59  ILE59       0.0001
     97  N         13.1690  135.0300   20.9830 N.am   60  ARG60      -0.1980
     98  CA        11.8580  134.6950   20.4160 C.3    60  ARG60       0.1597
     99  C         11.1310  133.6600   21.2820 C.2    60  ARG60       0.2287
    100  O         10.0380  133.9150   21.7960 O.2    60  ARG60      -0.2864
    101  CB        12.0450  134.1650   18.9910 C.3    60  ARG60       0.0334
    102  CG        10.7920  134.0790   18.1370 C.3    60  ARG60       0.0492
    103  CD        11.1810  133.7580   16.6960 C.3    60  ARG60       0.2205
    104  NE        11.9480  134.8300   16.0560 N.pl3  60  ARG60      -0.0865
    105  CZ        11.4110  135.7830   15.2950 C.cat  60  ARG60       0.5346
    106  NH1       12.1810  136.7240   14.7520 N.pl3  60  ARG60       0.1354
    107  NH2       10.1030  135.7930   15.0660 N.pl3  60  ARG60       0.1354
    108  N         16.0180  126.2180   19.7450 N.3    76  ASN76      -0.1225
    109  CA        17.0630  125.4650   19.0780 C.3    76  ASN76       0.1785
    110  C         17.9980  126.3500   18.2690 C.2    76  ASN76       0.2597
    111  O         17.5860  127.3680   17.7160 O.2    76  ASN76      -0.2718
    112  CB        16.4390  124.4250   18.1440 C.3    76  ASN76       0.1169
    113  CG        17.4800  123.6430   17.3650 C.2    76  ASN76       0.2627
    114  OD1       18.0680  122.6910   17.8800 O.2    76  ASN76      -0.2716
    115  ND2       17.7330  124.0590   16.1230 N.am   76  ASN76      -0.0877
    116  N         19.2670  125.9550   18.2270 N.am   77  ASP77      -0.1960
    117  CA        20.2710  126.6540   17.4500 C.3    77  ASP77       0.1840
    118  C         21.4520  125.7140   17.2440 C.2    77  ASP77       0.2622
    119  O         21.8090  124.9410   18.1340 O.2    77  ASP77      -0.2715
    120  CB        20.7300  127.9450   18.1310 C.3    77  ASP77       0.1450
    121  CG        21.2520  128.9630   17.1240 C.2    77  ASP77       0.3671
    122  OD1       20.5260  129.9370   16.8260 O.co2  77  ASP77      -0.2456
    123  OD2       22.3780  128.7730   16.6040 O.co2  77  ASP77      -0.2456
    124  N         22.0470  125.7830   16.0580 N.am   78  ILE78      -0.1963
    125  CA        23.1650  124.9280   15.7060 C.3    78  ILE78       0.1727
    126  C         24.4780  125.3990   16.3130 C.2    78  ILE78       0.2616
    127  O         25.4430  124.6330   16.3890 O.2    78  ILE78      -0.2715
    128  CB        23.3280  124.8570   14.1820 C.3    78  ILE78       0.0290
    129  CG1       24.1780  123.6440   13.8150 C.3    78  ILE78       0.0022
    130  CG2       23.9760  126.1420   13.6540 C.3    78  ILE78       0.0023
    131  CD1       24.3030  123.4130   12.3340 C.3    78  ILE78       0.0001
    132  N         24.5160  126.6560   16.7460 N.am   79  SER79      -0.1950
    133  CA        25.7270  127.2210   17.3330 C.3    79  SER79       0.1924
    134  C         25.9040  126.9590   18.8260 C.2    79  SER79       0.2314
    135  O         24.9800  127.1560   19.6230 O.2    79  SER79      -0.2863
    136  CB        25.7770  128.7310   17.0970 C.3    79  SER79       0.2116
    137  OG        26.8560  129.2950   17.8220 O.3    79  SER79      -0.2180
    138  N         25.5000  130.0520   20.9230 N.3    82  ALA82      -0.1245
    139  CA        24.0990  130.4490   20.9760 C.3    82  ALA82       0.1562
    140  C         23.4100  129.5770   22.0140 C.2    82  ALA82       0.2260
    141  O         22.6740  130.0700   22.8660 O.2    82  ALA82      -0.2867
    142  CB        23.4390  130.2680   19.6100 C.3    82  ALA82       0.0290
    143  N         21.2460  121.8290   18.3250 N.3   118  ASP118     -0.1225
    144  CA        21.1680  120.9390   17.1880 C.3   118  ASP118      0.1805
    145  C         20.8410  121.6640   15.8960 C.2   118  ASP118      0.2598
    146  O         20.4870  122.8430   15.8970 O.2   118  ASP118     -0.2718
    147  CB        20.0930  119.8850   17.4880 C.3   118  ASP118      0.1424
    148  CG        20.1510  118.6870   16.5550 C.2   118  ASP118      0.3668
    149  OD1       21.1770  118.5110   15.8480 O.co2 118  ASP118     -0.2456
    150  OD2       19.1680  117.9050   16.5550 O.co2 118  ASP118     -0.2456
    151  N         20.9750  120.9340   14.7920 N.am  119  ASP119     -0.1960
    152  CA        20.6660  121.4370   13.4610 C.3   119  ASP119      0.1840
    153  C         19.1390  121.3720   13.3210 C.2   119  ASP119      0.2622
    154  O         18.5260  120.3390   13.6080 O.2   119  ASP119     -0.2715
    155  CB        21.3670  120.5520   12.4200 C.3   119  ASP119      0.1450
    156  CG        20.7850  120.7010   11.0300 C.2   119  ASP119      0.3671
    157  OD1       20.1940  121.7610   10.7340 O.co2 119  ASP119     -0.2456
    158  OD2       20.9350  119.7580   10.2280 O.co2 119  ASP119     -0.2456
    159  N         18.5340  122.4790   12.8970 N.am  120  ALA120     -0.1963
    160  CA        17.0800  122.5660   12.7480 C.3   120  ALA120      0.1728
    161  C         16.4770  121.4390   11.9150 C.2   120  ALA120      0.2616
    162  O         15.4390  120.8950   12.2650 O.2   120  ALA120     -0.2715
    163  CB        16.6910  123.9150   12.1540 C.3   120  ALA120      0.0334
    164  N         17.1200  121.0920   10.8090 N.am  121  ASN121     -0.1972
    165  CA        16.6090  120.0220    9.9630 C.3   121  ASN121      0.1688
    166  C         16.6560  118.6850   10.6800 C.2   121  ASN121      0.2292
    167  O         15.8420  117.8030   10.4220 O.2   121  ASN121     -0.2864
    168  CB        17.3950  119.9480    8.6530 C.3   121  ASN121      0.1181
    169  CG        16.9650  121.0160    7.6710 C.2   121  ASN121      0.2629
    170  OD1       15.7740  121.3200    7.5720 O.2   121  ASN121     -0.2716
    171  ND2       17.9190  121.5840    6.9340 N.am  121  ASN121     -0.0877
    172  N         12.9690  131.6980   11.2540 N.3   137  ASP137     -0.1225
    173  CA        13.5440  133.0280   11.1500 C.3   137  ASP137      0.1790
    174  C         15.0300  132.8880   10.8220 C.2   137  ASP137      0.2440
    175  O         15.8920  133.1320   11.6660 O.2   137  ASP137     -0.2733
    176  CB        13.3410  133.7440   12.4860 C.3   137  ASP137      0.1423
    177  CG        13.8030  135.1760   12.4580 C.2   137  ASP137      0.3668
    178  OD1       13.3550  135.9300   11.5600 O.co2 137  ASP137     -0.2456
    179  OD2       14.6060  135.5470   13.3390 O.co2 137  ASP137     -0.2456
    180  N         15.3440  132.4880    9.5840 N.am  138  PRO138     -0.2718
    181  CA        16.7280  132.3030    9.1400 C.3   138  PRO138      0.1535
    182  C         17.3780  133.5550    8.5730 C.2   138  PRO138      0.2598
    183  O         16.7400  134.5980    8.4330 O.2   138  PRO138     -0.2715
    184  CB        16.5870  131.2340    8.0730 C.3   138  PRO138      0.0310
    185  CG        15.3390  131.6960    7.3730 C.3   138  PRO138      0.0237
    186  CD        14.4020  132.0650    8.5290 C.3   138  PRO138      0.0939
    187  N         18.6570  133.4380    8.2410 N.am  139  PHE139     -0.1974
    188  CA        19.3790  134.5520    7.6510 C.3   139  PHE139      0.1639
    189  C         19.0310  134.5670    6.1700 C.2   139  PHE139      0.2290
    190  O         19.6860  133.9030    5.3660 O.2   139  PHE139     -0.2864
    191  CB        20.8890  134.3720    7.8110 C.3   139  PHE139      0.0560
    192  CG        21.3880  134.6290    9.1950 C.ar  139  PHE139     -0.0200
    193  CD1       20.9740  135.7550    9.8930 C.ar  139  PHE139     -0.0042
    194  CD2       22.3110  133.7730    9.7830 C.ar  139  PHE139     -0.0042
    195  CE1       21.4750  136.0270   11.1580 C.ar  139  PHE139     -0.0003
    196  CE2       22.8210  134.0370   11.0470 C.ar  139  PHE139     -0.0003
    197  CZ        22.4020  135.1660   11.7360 C.ar  139  PHE139     -0.0000
    198  N         15.0060  124.8400    5.1450 N.3   145  PHE145     -0.1241
    199  CA        14.2480  124.2250    6.2420 C.3   145  PHE145      0.1605
    200  C         12.7610  124.0010    5.9700 C.2   145  PHE145      0.2264
    201  O         12.1200  123.1760    6.6250 O.2   145  PHE145     -0.2867
    202  CB        14.3570  125.0960    7.4950 C.3   145  PHE145      0.0534
    203  CG        15.7620  125.4700    7.8550 C.ar  145  PHE145     -0.0203
    204  CD1       16.6020  124.5540    8.4860 C.ar  145  PHE145     -0.0042
    205  CD2       16.2490  126.7440    7.5620 C.ar  145  PHE145     -0.0042
    206  CE1       17.9100  124.9060    8.8210 C.ar  145  PHE145     -0.0003
    207  CE2       17.5570  127.1080    7.8900 C.ar  145  PHE145     -0.0003
    208  CZ        18.3880  126.1900    8.5210 C.ar  145  PHE145     -0.0000
@<TRIPOS>BOND
     1   198   199    1
     2   190   189    2
     3   200   199    1
     4   200   201    2
     5   189   188    1
     6   199   202    1
     7   171   169   am
     8   185   184    1
     9   185   186    1
    10   202   203    1
    11   205   203   ar
    12   205   207   ar
    13   170   169    2
    14   188   191    1
    15   188   187    1
    16   169   168    1
    17   191   192    1
    18   203   204   ar
    19   207   208   ar
    20   184   181    1
    21   187   182   am
    22   183   182    2
    23   204   206   ar
    24   208   206   ar
    25   186   180    1
    26   182   181    1
    27   168   165    1
    28   181   180    1
    29   192   194   ar
    30   192   193   ar
    31   180   174   am
    32   194   196   ar
    33   193   195   ar
    34   165   166    1
    35   165   164    1
    36   158   156   ar
    37   167   166    2
    38   157   156   ar
    39   164   161   am
    40   174   173    1
    41   174   175    2
    42   156   155    1
    43   196   197   ar
    44   173   172    1
    45   173   176    1
    46   195   197   ar
    47    70    68    1
    48   178   177   ar
    49    69    68    1
    50   161   162    2
    51   161   160    1
    52    38    36   am
    53   163   160    1
    54    68    67    1
    55   131   129    1
    56   155   152    1
    57   177   176    1
    58   177   179   ar
    59    16    18   ar
    60    16    14   ar
    61    18    17   ar
    62   160   159    1
    63   159   153   am
    64   153   152    1
    65   153   154    2
    66    36    37    2
    67    36    35    1
    68    67    64    1
    69   152   151    1
    70    14    13   ar
    71    17    15   ar
    72    62    59    1
    73   130   128    1
    74   129   128    1
    75    35    32    1
    76   128   125    1
    77    13    15   ar
    78    13    12    1
    79   106   105    1
    80    63    64    1
    81    63    60   am
    82   151   145   am
    83    64    65    1
    84    59    60    1
    85    59    58    1
    86    60    61    2
    87   107   105    1
    88    12     9    1
    89   105   104    2
    90    66    65    2
    91    32    31    1
    92    32    33    1
    93   125   124    1
    94   125   126    1
    95    58    52   am
    96   149   148   ar
    97    65    71   am
    98   145   146    2
    99   145   144    1
   100   104   103    1
   101   124   118   am
   102   115   113   am
   103    39    40    1
   104    31    21   am
   105   126   127    2
   106   126   132   am
   107    33    34    2
   108     9     8    1
   109     9    10    1
   110   148   150   ar
   111   148   147    1
   112   123   121   ar
   113   103   102    1
   114   132   133    1
   115   122   121   ar
   116    52    53    2
   117    52    51    1
   118    48    47    1
   119    21    22    2
   120    21    20    1
   121   136   133    1
   122   136   137    1
   123   121   120    1
   124    71    72    1
   125    19    10   am
   126    19    20    1
   127    56    55   ar
   128   144   147    1
   129   144   143    1
   130     8     3   am
   131   118   117    1
   132   118   119    2
   133    10    11    2
   134    40    41    1
   135    40    43    1
   136   133   134    1
   137   113   114    2
   138   113   112    1
   139   117   120    1
   140   117   116    1
   141    44    43    1
   142    44    45    1
   143    51    50    1
   144    51    54    1
   145    81    78    1
   146   111   110    2
   147    20    23    1
   148    41    42    2
   149    47    49    1
   150    47    46    2
   151   102   101    1
   152   112   109    1
   153    77    78    1
   154    77    73   am
   155   116   110   am
   156   110   109    1
   157    72    73    1
   158    72    75    1
   159     3     4    2
   160     3     2    1
   161    55    54    1
   162    55    57   ar
   163    78    79    1
   164    73    74    2
   165    45    46    1
   166   134   135    2
   167     2     1    1
   168     2     5    1
   169   101    98    1
   170   109   108    1
   171    23    24    1
   172    75    76    1
   173   142   139    1
   174    24    25   ar
   175    24    26   ar
   176    79    82   am
   177    79    80    2
   178    25    27   ar
   179    26    28   ar
   180     6     5    1
   181     5     7    1
   182    98    97    1
   183    98    99    1
   184    82    83    1
   185    27    29   ar
   186    28    29   ar
   187    95    93    1
   188    29    30    1
   189   138   139    1
   190   139   140    1
   191    97    91   am
   192    99   100    2
   193    88    86    1
   194    87    86    1
   195    83    86    1
   196    83    84    1
   197   140   141    2
   198    93    94    1
   199    93    90    1
   200    94    96    1
   201    91    90    1
   202    91    92    2
   203    89    90    1
   204    84    85    2
