@<TRIPOS>MOLECULE
tmp/2yu1A00.pdb
 111 102 0 0 0
SMALL
GASTEIGER

@<TRIPOS>ATOM
      1  N         51.6290   35.8910   35.1830 N.3   107  ASN107     -0.1240
      2  CA        52.1730   36.9440   36.0280 C.3   107  ASN107      0.1653
      3  C         52.1710   36.5220   37.5010 C.2   107  ASN107      0.2266
      4  O         51.1840   35.9830   38.0110 O.2   107  ASN107     -0.2867
      5  CB        51.3350   38.2120   35.8530 C.3   107  ASN107      0.1155
      6  CG        52.0010   39.4470   36.4350 C.2   107  ASN107      0.2627
      7  OD1       51.3480   40.4690   36.6350 O.2   107  ASN107     -0.2716
      8  ND2       53.3000   39.3650   36.6980 N.am  107  ASN107     -0.0877
      9  N         52.6290   38.2480   40.9900 N.3   109  ILE109     -0.1245
     10  CA        52.7630   39.4780   41.7600 C.3   109  ILE109      0.1561
     11  C         52.4080   39.2740   43.2230 C.2   109  ILE109      0.2260
     12  O         52.0370   40.2300   43.9060 O.2   109  ILE109     -0.2867
     13  CB        51.8600   40.6110   41.1980 C.3   109  ILE109      0.0252
     14  CG1       50.3930   40.1920   41.2660 C.3   109  ILE109      0.0019
     15  CG2       52.2420   40.9300   39.7630 C.3   109  ILE109      0.0019
     16  CD1       49.4350   41.2360   40.7470 C.3   109  ILE109      0.0001
     17  N         57.6900   40.3050   42.8560 N.3   155  LEU155     -0.1245
     18  CA        56.8900   40.1990   41.6430 C.3   155  LEU155      0.1561
     19  C         57.8220   39.8010   40.4960 C.2   155  LEU155      0.2260
     20  O         58.9500   40.2880   40.3930 O.2   155  LEU155     -0.2867
     21  CB        56.2180   41.5430   41.2860 C.3   155  LEU155      0.0270
     22  CG        55.5170   42.4630   42.2990 C.3   155  LEU155      0.0019
     23  CD1       54.4570   41.7150   43.0730 C.3   155  LEU155      0.0001
     24  CD2       56.5500   43.0420   43.2490 C.3   155  LEU155      0.0001
     25  N         52.3880   41.2930   30.2610 N.3   161  CYS161     -0.1235
     26  CA        51.3340   41.1300   31.2490 C.3   161  CYS161      0.1677
     27  C         50.8600   42.4740   31.7910 C.2   161  CYS161      0.2270
     28  O         51.6440   43.4090   31.9800 O.2   161  CYS161     -0.2867
     29  CB        51.7470   40.1630   32.3730 C.3   161  CYS161      0.0956
     30  SG        53.3790   40.3460   33.0710 S.3   161  CYS161     -0.0801
     31  N         48.2260   44.2360   34.7470 N.3   163  THR163     -0.1218
     32  CA        47.3730   44.1320   35.9190 C.3   163  THR163      0.1862
     33  C         46.4320   45.3390   35.8730 C.2   163  THR163      0.2287
     34  O         46.8720   46.4870   36.0110 O.2   163  THR163     -0.2866
     35  CB        48.2020   44.1420   37.2130 C.3   163  THR163      0.1770
     36  OG1       49.0090   42.9550   37.2710 O.3   163  THR163     -0.2211
     37  CG2       47.2780   44.1930   38.4380 C.3   163  THR163      0.0375
     38  N         43.3160   48.7860   40.1640 N.3   166  HIS166     -0.1241
     39  CA        42.9550   48.2640   41.4550 C.3   166  HIS166      0.1621
     40  C         43.5830   49.1610   42.5060 C.2   166  HIS166      0.2264
     41  O         44.4180   50.0150   42.1930 O.2   166  HIS166     -0.2867
     42  CB        43.5140   46.8480   41.6250 C.3   166  HIS166      0.0745
     43  CG        45.0060   46.8100   41.7540 C.ar  166  HIS166      0.0817
     44  ND1       45.8460   46.7640   40.6600 N.ar  166  HIS166     -0.2268
     45  CD2       45.8100   46.9110   42.8440 C.ar  166  HIS166      0.1154
     46  CE1       47.1000   46.8410   41.0710 C.ar  166  HIS166      0.1986
     47  NE2       47.1080   46.9340   42.3910 N.ar  166  HIS166     -0.2212
     48  N         45.4650   48.6190   46.1650 N.3   168  ASP168     -0.1239
     49  CA        46.0480   47.5590   46.9740 C.3   168  ASP168      0.1674
     50  C         45.2660   47.2360   48.2440 C.2   168  ASP168      0.2266
     51  O         44.7350   48.1310   48.9010 O.2   168  ASP168     -0.2867
     52  CB        47.5030   47.9070   47.2830 C.3   168  ASP168      0.1410
     53  CG        48.3750   47.8730   46.0360 C.2   168  ASP168      0.3668
     54  OD1       47.8320   47.5350   44.9480 O.co2 168  ASP168     -0.2456
     55  OD2       49.5940   48.1720   46.1330 O.co2 168  ASP168     -0.2456
     56  N         58.2560   49.6710   45.5870 N.3   176  TYR176     -0.1241
     57  CA        58.7480   48.7460   44.5790 C.3   176  TYR176      0.1605
     58  C         60.1100   49.1890   44.0910 C.2   176  TYR176      0.2264
     59  O         60.3540   50.3710   43.8880 O.2   176  TYR176     -0.2867
     60  CB        57.8210   48.6870   43.3640 C.3   176  TYR176      0.0534
     61  CG        56.5100   47.9650   43.5740 C.ar  176  TYR176     -0.0201
     62  CD1       56.4590   46.7100   44.1800 C.ar  176  TYR176     -0.0009
     63  CD2       55.3140   48.5320   43.1420 C.ar  176  TYR176     -0.0009
     64  CE1       55.2360   46.0350   44.3510 C.ar  176  TYR176      0.0417
     65  CE2       54.0960   47.8720   43.3090 C.ar  176  TYR176      0.0417
     66  CZ        54.0570   46.6280   43.9130 C.ar  176  TYR176      0.1957
     67  OH        52.8280   46.0160   44.0840 O.3   176  TYR176     -0.2866
     68  N         58.6000   48.7770   34.4220 N.3   183  LYS183     -0.1245
     69  CA        57.1490   48.6860   34.4750 C.3   183  LYS183      0.1561
     70  C         56.4890   50.0190   34.1590 C.2   183  LYS183      0.2260
     71  O         57.0580   51.0740   34.4110 O.2   183  LYS183     -0.2867
     72  CB        56.7030   48.1930   35.8530 C.3   183  LYS183      0.0271
     73  CG        56.7440   46.6820   36.0010 C.3   183  LYS183      0.0035
     74  CD        56.0460   46.2350   37.2740 C.3   183  LYS183      0.0206
     75  CE        55.9410   44.7180   37.3710 C.3   183  LYS183      0.1093
     76  NZ        54.9940   44.1570   36.3650 N.3   183  LYS183     -0.1314
     77  N         53.1580   52.3760   34.8300 N.3   185  PHE185     -0.1241
     78  CA        52.0350   52.5610   35.7380 C.3   185  PHE185      0.1605
     79  C         51.0960   53.6490   35.2690 C.2   185  PHE185      0.2264
     80  O         51.5150   54.6300   34.6490 O.2   185  PHE185     -0.2867
     81  CB        52.5080   52.9610   37.1410 C.3   185  PHE185      0.0534
     82  CG        52.9910   51.8160   37.9880 C.ar  185  PHE185     -0.0203
     83  CD1       54.3030   51.3680   37.9020 C.ar  185  PHE185     -0.0042
     84  CD2       52.1340   51.2000   38.8970 C.ar  185  PHE185     -0.0042
     85  CE1       54.7540   50.3310   38.7100 C.ar  185  PHE185     -0.0003
     86  CE2       52.5800   50.1580   39.7080 C.ar  185  PHE185     -0.0003
     87  CZ        53.8930   49.7270   39.6110 C.ar  185  PHE185     -0.0000
     88  N         45.5680   52.2570   40.5060 N.3   238  HIS238     -0.1241
     89  CA        46.5730   52.1460   39.4660 C.3   238  HIS238      0.1621
     90  C         46.4550   50.8460   38.6810 C.2   238  HIS238      0.2264
     91  O         45.8500   49.8720   39.1390 O.2   238  HIS238     -0.2867
     92  CB        47.9570   52.2280   40.0930 C.3   238  HIS238      0.0745
     93  CG        48.1350   51.2740   41.2220 C.ar  238  HIS238      0.0817
     94  ND1       47.6280   51.5170   42.4780 N.ar  238  HIS238     -0.2268
     95  CD2       48.6490   50.0220   41.2570 C.ar  238  HIS238      0.1154
     96  CE1       47.8180   50.4550   43.2390 C.ar  238  HIS238      0.1986
     97  NE2       48.4340   49.5330   42.5220 N.ar  238  HIS238     -0.2212
     98  N         48.9720   48.3050   36.0330 N.3   240  VAL240     -0.1245
     99  CA        50.3670   48.0960   35.7000 C.3   240  VAL240      0.1561
    100  C         50.5520   47.2310   34.4580 C.2   240  VAL240      0.2260
    101  O         49.7380   46.3540   34.1400 O.2   240  VAL240     -0.2867
    102  CB        51.1180   47.4620   36.8820 C.3   240  VAL240      0.0252
    103  CG1       52.6160   47.6160   36.6920 C.3   240  VAL240      0.0019
    104  CG2       50.6750   48.1080   38.1720 C.3   240  VAL240      0.0019
    105  N         53.8460   45.3170   32.1900 N.3   242  THR242     -0.1218
    106  CA        55.2560   44.9440   32.1050 C.3   242  THR242      0.1862
    107  C         55.7150   44.9420   30.6340 C.2   242  THR242      0.2287
    108  O         55.4130   44.0260   29.8750 O.2   242  THR242     -0.2866
    109  CB        55.4470   43.5700   32.7400 C.3   242  THR242      0.1770
    110  OG1       54.7090   43.5340   33.9690 O.3   242  THR242     -0.2211
    111  CG2       56.9220   43.2990   33.0260 C.3   242  THR242      0.0375
@<TRIPOS>BOND
     1   108   107    2
     2    25    26    1
     3   107   106    1
     4    26    27    1
     5    26    29    1
     6    27    28    2
     7   106   105    1
     8   106   109    1
     9    29    30    1
    10   109   111    1
    11   109   110    1
    12   101   100    2
    13    70    71    2
    14    70    69    1
    15    68    69    1
    16   100    99    1
    17    69    72    1
    18    80    79    2
    19    31    32    1
    20    77    78    1
    21     1     2    1
    22    79    78    1
    23    99    98    1
    24    99   102    1
    25    78    81    1
    26     5     2    1
    27     5     6    1
    28    72    73    1
    29    33    32    1
    30    33    34    2
    31    32    35    1
    32    73    74    1
    33     2     3    1
    34    76    75    1
    35     6     7    2
    36     6     8   am
    37   103   102    1
    38   102   104    1
    39    81    82    1
    40    35    36    1
    41    35    37    1
    42    74    75    1
    43     3     4    2
    44    83    82   ar
    45    83    85   ar
    46    82    84   ar
    47    90    91    2
    48    90    89    1
    49    85    87   ar
    50    84    86   ar
    51    89    92    1
    52    89    88    1
    53    87    86   ar
    54    15    13    1
    55    92    93    1
    56    38    39    1
    57    20    19    2
    58    19    18    1
    59    44    46   ar
    60    44    43   ar
    61    16    14    1
    62     9    10    1
    63    46    47   ar
    64    13    14    1
    65    13    10    1
    66    93    95   ar
    67    93    94   ar
    68    95    97   ar
    69    21    18    1
    70    21    22    1
    71    39    42    1
    72    39    40    1
    73    42    43    1
    74    18    17    1
    75    43    45   ar
    76    10    11    1
    77    41    40    2
    78    22    23    1
    79    22    24    1
    80    47    45   ar
    81    94    96   ar
    82    97    96   ar
    83    63    65   ar
    84    63    61   ar
    85    11    12    2
    86    65    66   ar
    87    60    61    1
    88    60    57    1
    89    61    62   ar
    90    59    58    2
    91    66    67    1
    92    66    64   ar
    93    58    57    1
    94    62    64   ar
    95    57    56    1
    96    54    53   ar
    97    53    55   ar
    98    53    52    1
    99    48    49    1
   100    49    52    1
   101    49    50    1
   102    50    51    2
