@<TRIPOS>MOLECULE
tmp/2yv5A00.pdb
 103 98 0 0 0
SMALL
GASTEIGER

@<TRIPOS>ATOM
      1  N         11.4700    6.2260   18.1660 N.3   118  ASN118     -0.1225
      2  CA        10.9200    6.4420   16.8210 C.3   118  ASN118      0.1785
      3  C         10.9330    5.1300   16.0170 C.2   118  ASN118      0.2597
      4  O         11.4280    4.1040   16.4950 O.2   118  ASN118     -0.2718
      5  CB        11.7900    7.5080   16.1200 C.3   118  ASN118      0.1169
      6  CG        11.2310    7.9520   14.7760 C.2   118  ASN118      0.2627
      7  OD1       10.0300    8.0810   14.6130 O.2   118  ASN118     -0.2716
      8  ND2       12.1150    8.2100   13.8190 N.am  118  ASN118     -0.0877
      9  N         10.3550    5.1720   14.8130 N.am  119  LYS119     -0.1980
     10  CA        10.3170    4.0300   13.9090 C.3   119  LYS119      0.1596
     11  C          9.5460    2.8250   14.4360 C.2   119  LYS119      0.2287
     12  O          9.8540    1.6890   14.0750 O.2   119  LYS119     -0.2864
     13  CB        11.7480    3.6020   13.5630 C.3   119  LYS119      0.0298
     14  CG        12.5930    4.7150   12.9500 C.3   119  LYS119      0.0038
     15  CD        13.7460    4.1250   12.1390 C.3   119  LYS119      0.0206
     16  CE        14.7400    5.2030   11.6650 C.3   119  LYS119      0.1093
     17  NZ        15.8080    4.6270   10.7670 N.3   119  LYS119     -0.1314
     18  N          6.7950    1.9290   13.5920 N.3   121  ASP121     -0.1225
     19  CA         6.0730    1.3380   12.4680 C.3   121  ASP121      0.1805
     20  C          6.8170    0.1340   11.8680 C.2   121  ASP121      0.2597
     21  O          6.2240   -0.6830   11.1510 O.2   121  ASP121     -0.2718
     22  CB         5.8570    2.3940   11.3870 C.3   121  ASP121      0.1424
     23  CG         7.1640    2.9680   10.8680 C.2   121  ASP121      0.3668
     24  OD1        7.7450    3.8390   11.5450 O.co2 121  ASP121     -0.2456
     25  OD2        7.6310    2.5530    9.7850 O.co2 121  ASP121     -0.2456
     26  N          8.1090    0.0160   12.1600 N.am  122  LEU122     -0.1979
     27  CA         8.9190   -1.0860   11.6240 C.3   122  LEU122      0.1596
     28  C          8.9230   -2.3570   12.4660 C.2   122  LEU122      0.2287
     29  O          9.3720   -3.4200   12.0180 O.2   122  LEU122     -0.2864
     30  CB        10.3800   -0.6450   11.4780 C.3   122  LEU122      0.0297
     31  CG        10.7220    0.4540   10.4720 C.3   122  LEU122      0.0022
     32  CD1       12.2270    0.7150   10.5020 C.3   122  LEU122      0.0001
     33  CD2       10.2840    0.0180    9.0680 C.3   122  LEU122      0.0001
     34  N          6.1680    7.5470   15.3930 N.3   149  SER149     -0.1202
     35  CA         6.5980    7.1050   14.0760 C.3   149  SER149      0.2020
     36  C          6.5780    8.3780   13.2610 C.2   149  SER149      0.2619
     37  O          5.5000    8.9030   12.9710 O.2   149  SER149     -0.2717
     38  CB         5.6410    6.1080   13.4310 C.3   149  SER149      0.2103
     39  OG         6.0790    5.8850   12.0900 O.3   149  SER149     -0.2182
     40  N          7.7570    8.9090   12.9360 N.am  150  ALA150     -0.1965
     41  CA         7.8200   10.1130   12.1240 C.3   150  ALA150      0.1728
     42  C          7.2920    9.7760   10.7220 C.2   150  ALA150      0.2616
     43  O          6.8250   10.6600    9.9870 O.2   150  ALA150     -0.2715
     44  CB         9.2510   10.6260   12.0330 C.3   150  ALA150      0.0334
     45  N          7.3550    8.4980   10.3500 N.am  151  LYS151     -0.1977
     46  CA         6.8800    8.0950    9.0260 C.3   151  LYS151      0.1596
     47  C          5.3660    8.1610    8.8980 C.2   151  LYS151      0.2287
     48  O          4.8510    8.7600    7.9580 O.2   151  LYS151     -0.2864
     49  CB         7.3410    6.6770    8.6680 C.3   151  LYS151      0.0298
     50  CG         6.7020    6.1490    7.3550 C.3   151  LYS151      0.0038
     51  CD         7.2380    4.7620    6.9720 C.3   151  LYS151      0.0206
     52  CE         6.4200    4.1380    5.8360 C.3   151  LYS151      0.1093
     53  NZ         7.1960    3.1070    5.0990 N.3   151  LYS151     -0.1314
     54  N         23.2350    8.6800   14.9410 N.3   174  SER174     -0.1202
     55  CA        22.8630    8.8320   13.5450 C.3   174  SER174      0.2020
     56  C         21.8320    7.7950   13.0460 C.2   174  SER174      0.2619
     57  O         21.9280    6.5900   13.3450 O.2   174  SER174     -0.2717
     58  CB        24.1310    8.7540   12.6850 C.3   174  SER174      0.2103
     59  OG        23.8120    8.7300   11.3090 O.3   174  SER174     -0.2182
     60  N         20.8440    8.2840   12.2970 N.am  175  GLY175     -0.1942
     61  CA        19.8420    7.4210   11.6910 C.3   175  GLY175      0.2014
     62  C         18.5710    7.1320   12.4490 C.2   175  GLY175      0.2639
     63  O         17.6980    6.4440   11.9150 O.2   175  GLY175     -0.2714
     64  N         18.4320    7.6580   13.6680 N.am  176  VAL176     -0.1963
     65  CA        17.2310    7.3610   14.4390 C.3   176  VAL176      0.1727
     66  C         15.9920    8.1220   13.9680 C.2   176  VAL176      0.2617
     67  O         14.8590    7.7290   14.2780 O.2   176  VAL176     -0.2715
     68  CB        17.4450    7.6380   15.9460 C.3   176  VAL176      0.0290
     69  CG1       18.4800    6.6560   16.5120 C.3   176  VAL176      0.0023
     70  CG2       17.9150    9.1120   16.1510 C.3   176  VAL176      0.0023
     71  N         16.2160    9.2060   13.2330 N.am  177  GLY177     -0.1940
     72  CA        15.1050   10.0000   12.7480 C.3   177  GLY177      0.2014
     73  C         15.0300   11.4150   13.3190 C.2   177  GLY177      0.2639
     74  O         13.9590   12.0060   13.2960 O.2   177  GLY177     -0.2714
     75  N         16.1380   11.9770   13.8140 N.am  178  LYS178     -0.1963
     76  CA        16.0770   13.3400   14.3620 C.3   178  LYS178      0.1728
     77  C         15.6120   14.3550   13.3170 C.2   178  LYS178      0.2617
     78  O         14.7720   15.2110   13.5980 O.2   178  LYS178     -0.2715
     79  CB        17.4500   13.7760   14.9150 C.3   178  LYS178      0.0311
     80  CG        18.0040   12.8950   16.0640 C.3   178  LYS178      0.0038
     81  CD        19.4090   13.3820   16.5060 C.3   178  LYS178      0.0206
     82  CE        20.4570   13.3290   15.3780 C.3   178  LYS178      0.1093
     83  NZ        20.8140   11.9290   15.0030 N.3   178  LYS178     -0.1314
     84  N         16.1680   14.2780   12.1070 N.am  179  SER179     -0.1936
     85  CA        15.7820   15.2120   11.0560 C.3   179  SER179      0.2055
     86  C         14.3250   15.0020   10.6300 C.2   179  SER179      0.2643
     87  O         13.6010   15.9730   10.3660 O.2   179  SER179     -0.2714
     88  CB        16.7370   15.0630    9.8570 C.3   179  SER179      0.2130
     89  OG        16.6140   16.1670    8.9870 O.3   179  SER179     -0.2179
     90  N         13.8920   13.7410   10.5750 N.am  180  SER180     -0.1949
     91  CA        12.5030   13.4140   10.2050 C.3   180  SER180      0.1924
     92  C         11.5330   13.9650   11.2320 C.2   180  SER180      0.2314
     93  O         10.4460   14.4290   10.9020 O.2   180  SER180     -0.2863
     94  CB        12.3110   11.8890   10.0980 C.3   180  SER180      0.2116
     95  OG        13.1580   11.3630    9.1000 O.3   180  SER180     -0.2180
     96  N         17.4420   19.3230    9.6970 N.3   190  LEU190     -0.1245
     97  CA        18.4550   19.4240   10.7260 C.3   190  LEU190      0.1561
     98  C         19.7610   19.8180   10.0270 C.2   190  LEU190      0.2260
     99  O         20.1330   19.2060    9.0160 O.2   190  LEU190     -0.2867
    100  CB        18.5890   18.0720   11.4090 C.3   190  LEU190      0.0270
    101  CG        19.2530   17.9860   12.7720 C.3   190  LEU190      0.0019
    102  CD1       18.5580   18.9020   13.7470 C.3   190  LEU190      0.0001
    103  CD2       19.1960   16.5430   13.2520 C.3   190  LEU190      0.0001
@<TRIPOS>BOND
     1    53    52    1
     2    52    51    1
     3    51    50    1
     4    50    49    1
     5    48    47    2
     6    49    46    1
     7    47    46    1
     8    89    88    1
     9    99    98    2
    10    46    45    1
    11    33    31    1
    12    95    94    1
    13    96    97    1
    14    25    23   ar
    15    88    85    1
    16    43    42    2
    17    98    97    1
    18    94    91    1
    19    91    90    1
    20    91    92    1
    21    45    42   am
    22    87    86    2
    23    31    32    1
    24    31    30    1
    25    90    86   am
    26    86    85    1
    27    42    41    1
    28    97   100    1
    29    17    16    1
    30    23    22    1
    31    23    24   ar
    32    93    92    2
    33    85    84    1
    34    21    20    2
    35    59    58    1
    36    22    19    1
    37   100   101    1
    38    30    27    1
    39    27    26    1
    40    27    28    1
    41    16    15    1
    42    61    60    1
    43    61    62    1
    44    20    26   am
    45    20    19    1
    46    63    62    2
    47    29    28    2
    48    44    41    1
    49    39    38    1
    50    84    77   am
    51    41    40    1
    52    15    14    1
    53    60    56   am
    54    62    64   am
    55    19    18    1
    56    58    55    1
    57    72    71    1
    58    72    73    1
    59   101   103    1
    60   101   102    1
    61    40    36   am
    62    14    13    1
    63    37    36    2
    64    56    57    2
    65    56    55    1
    66    71    66   am
    67    36    35    1
    68    74    73    2
    69    77    78    2
    70    77    76    1
    71    73    75   am
    72    38    35    1
    73    55    54    1
    74    13    10    1
    75    64    65    1
    76    75    76    1
    77     8     6   am
    78    10    11    1
    79    10     9    1
    80    66    67    2
    81    66    65    1
    82    12    11    2
    83    35    34    1
    84    76    79    1
    85    65    68    1
    86     7     6    2
    87     6     5    1
    88     9     3   am
    89    79    80    1
    90    83    82    1
    91    82    81    1
    92    68    70    1
    93    68    69    1
    94     3     4    2
    95     3     2    1
    96    80    81    1
    97     5     2    1
    98     2     1    1
