@<TRIPOS>MOLECULE
tmp/2yvcB00.pdb
 102 99 0 0 0
SMALL
GASTEIGER

@<TRIPOS>ATOM
      1  N          9.0480   37.5870  -36.7040 N.3   246  ILE246     -0.1231
      2  CA         8.3330   37.0270  -37.8520 C.3   246  ILE246      0.1692
      3  C          7.9630   38.1480  -38.8220 C.2   246  ILE246      0.2592
      4  O          7.5440   39.2340  -38.4120 O.2   246  ILE246     -0.2718
      5  CB         7.0320   36.2520  -37.4450 C.3   246  ILE246      0.0266
      6  CG1        7.2420   35.3760  -36.2010 C.3   246  ILE246      0.0019
      7  CG2        6.4780   35.4350  -38.6190 C.3   246  ILE246      0.0020
      8  CD1        8.1580   34.1880  -36.3870 C.3   246  ILE246      0.0001
      9  N          8.1430   37.8770  -40.1090 N.am  247  ARG247     -0.1966
     10  CA         7.6810   38.7670  -41.1550 C.3   247  ARG247      0.1729
     11  C          6.2800   38.3070  -41.5490 C.2   247  ARG247      0.2616
     12  O          5.3250   39.0810  -41.4700 O.2   247  ARG247     -0.2715
     13  CB         8.6510   38.7240  -42.3480 C.3   247  ARG247      0.0348
     14  CG         8.2320   39.5040  -43.6060 C.3   247  ARG247      0.0492
     15  CD         9.1660   39.1680  -44.7760 C.3   247  ARG247      0.2205
     16  NE         8.8960   39.9560  -45.9820 N.pl3 247  ARG247     -0.0865
     17  CZ         9.4280   41.1500  -46.2480 C.cat 247  ARG247      0.5346
     18  NH1       10.2610   41.7290  -45.3900 N.pl3 247  ARG247      0.1354
     19  NH2        9.1210   41.7750  -47.3780 N.pl3 247  ARG247      0.1354
     20  N          6.1600   37.0410  -41.9450 N.am  248  ASN248     -0.1958
     21  CA         4.9000   36.5060  -42.4500 C.3   248  ASN248      0.1819
     22  C          4.7350   35.0130  -42.1920 C.2   248  ASN248      0.2621
     23  O          5.6440   34.2210  -42.4460 O.2   248  ASN248     -0.2715
     24  CB         4.7600   36.8160  -43.9510 C.3   248  ASN248      0.1195
     25  CG         3.6820   35.9780  -44.6410 C.2   248  ASN248      0.2630
     26  OD1        2.5390   35.9040  -44.1850 O.2   248  ASN248     -0.2716
     27  ND2        4.0470   35.3530  -45.7570 N.am  248  ASN248     -0.0877
     28  N          3.5650   34.6500  -41.6720 N.am  249  ILE249     -0.1963
     29  CA         3.1410   33.2560  -41.5680 C.3   249  ILE249      0.1727
     30  C          2.0830   32.9960  -42.6300 C.2   249  ILE249      0.2617
     31  O          1.1500   33.7810  -42.7870 O.2   249  ILE249     -0.2715
     32  CB         2.6210   32.8690  -40.1370 C.3   249  ILE249      0.0290
     33  CG1        1.3970   33.7000  -39.6870 C.3   249  ILE249      0.0022
     34  CG2        3.7660   32.8500  -39.1220 C.3   249  ILE249      0.0023
     35  CD1        1.6800   35.0860  -39.0820 C.3   249  ILE249      0.0001
     36  N          2.2380   31.9040  -43.3690 N.am  250  SER250     -0.1936
     37  CA         1.3790   31.6350  -44.5160 C.3   250  SER250      0.2055
     38  C          1.3360   30.1570  -44.8410 C.2   250  SER250      0.2643
     39  O          2.3560   29.4740  -44.7900 O.2   250  SER250     -0.2714
     40  CB         1.8730   32.4130  -45.7330 C.3   250  SER250      0.2130
     41  OG         3.2890   32.4250  -45.7770 O.3   250  SER250     -0.2179
     42  N          0.1530   29.6680  -45.1810 N.am  251  PHE251     -0.1959
     43  CA        -0.0020   28.2600  -45.5080 C.3   251  PHE251      0.1771
     44  C         -0.5770   28.0260  -46.9060 C.2   251  PHE251      0.2620
     45  O         -1.0850   28.9490  -47.5500 O.2   251  PHE251     -0.2715
     46  CB        -0.8030   27.5170  -44.4220 C.3   251  PHE251      0.0574
     47  CG        -2.2580   27.9080  -44.3420 C.ar  251  PHE251     -0.0200
     48  CD1       -3.2300   27.1610  -45.0050 C.ar  251  PHE251     -0.0042
     49  CD2       -2.6590   29.0030  -43.5790 C.ar  251  PHE251     -0.0042
     50  CE1       -4.5750   27.5140  -44.9280 C.ar  251  PHE251     -0.0003
     51  CE2       -4.0020   29.3620  -43.4940 C.ar  251  PHE251     -0.0003
     52  CZ        -4.9610   28.6180  -44.1720 C.ar  251  PHE251     -0.0000
     53  N         -0.4780   26.7810  -47.3660 N.am  252  ASN252     -0.1958
     54  CA        -0.9250   26.3990  -48.6960 C.3   252  ASN252      0.1819
     55  C         -1.2210   24.9020  -48.7410 C.2   252  ASN252      0.2621
     56  O         -0.3840   24.1010  -49.1640 O.2   252  ASN252     -0.2715
     57  CB         0.1360   26.7800  -49.7400 C.3   252  ASN252      0.1195
     58  CG        -0.4600   27.0780  -51.1000 C.2   252  ASN252      0.2630
     59  OD1       -1.0210   28.1510  -51.3280 O.2   252  ASN252     -0.2716
     60  ND2       -0.3270   26.1330  -52.0180 N.am  252  ASN252     -0.0877
     61  N         -2.4090   24.5350  -48.2670 N.am  253  ASP253     -0.1971
     62  CA        -2.9210   23.1550  -48.3350 C.3   253  ASP253      0.1709
     63  C         -2.2330   22.1520  -47.4020 C.2   253  ASP253      0.2293
     64  O         -2.8190   21.1160  -47.0840 O.2   253  ASP253     -0.2864
     65  CB        -2.9310   22.6180  -49.7810 C.3   253  ASP253      0.1436
     66  CG        -3.7300   23.5040  -50.7400 C.2   253  ASP253      0.3671
     67  OD1       -3.6890   23.2410  -51.9610 O.co2 253  ASP253     -0.2456
     68  OD2       -4.3970   24.4620  -50.2850 O.co2 253  ASP253     -0.2456
     69  N         -5.4110   20.0860  -44.0770 N.3   275  LEU275     -0.1245
     70  CA        -5.6330   21.5220  -44.2390 C.3   275  LEU275      0.1561
     71  C         -6.1170   22.2090  -42.9630 C.2   275  LEU275      0.2260
     72  O         -5.5390   23.2170  -42.5500 O.2   275  LEU275     -0.2867
     73  CB        -6.5890   21.8160  -45.4030 C.3   275  LEU275      0.0270
     74  CG        -6.9790   23.2890  -45.6380 C.3   275  LEU275      0.0019
     75  CD1       -5.7940   24.1720  -46.0640 C.3   275  LEU275      0.0001
     76  CD2       -8.1270   23.4050  -46.6440 C.3   275  LEU275      0.0001
     77  N         -3.0900   29.3080  -37.7990 N.3   282  LEU282     -0.1245
     78  CA        -3.1420   30.7000  -38.2580 C.3   282  LEU282      0.1561
     79  C         -4.0730   31.5680  -37.4070 C.2   282  LEU282      0.2260
     80  O         -3.7810   32.7390  -37.1440 O.2   282  LEU282     -0.2867
     81  CB        -3.5350   30.7610  -39.7470 C.3   282  LEU282      0.0270
     82  CG        -3.1660   32.0000  -40.5950 C.3   282  LEU282      0.0019
     83  CD1       -4.2250   33.1100  -40.5240 C.3   282  LEU282      0.0001
     84  CD2       -1.7860   32.5530  -40.2360 C.3   282  LEU282      0.0001
     85  N         -2.9520   34.7750  -35.0760 N.3   286  MET286     -0.1245
     86  CA        -3.5850   36.0840  -35.2010 C.3   286  MET286      0.1570
     87  C         -3.9930   36.5330  -33.8150 C.2   286  MET286      0.2261
     88  O         -3.5740   37.5950  -33.3450 O.2   286  MET286     -0.2867
     89  CB        -4.8200   36.0270  -36.1010 C.3   286  MET286      0.0387
     90  CG        -4.5380   35.8000  -37.5830 C.3   286  MET286      0.0595
     91  SD        -6.0480   35.8890  -38.5900 S.3   286  MET286     -0.1393
     92  CE        -6.9480   34.3900  -38.1510 C.3   286  MET286      0.0692
     93  N         -1.0350   36.9900  -31.2880 N.3   289  HIS289     -0.1241
     94  CA        -0.2600   38.1660  -31.6600 C.3   289  HIS289      0.1621
     95  C         -1.0060   39.4570  -31.3460 C.2   289  HIS289      0.2264
     96  O         -0.4250   40.3800  -30.7740 O.2   289  HIS289     -0.2867
     97  CB         0.1540   38.1360  -33.1330 C.3   289  HIS289      0.0745
     98  CG         0.8820   39.3680  -33.5720 C.ar  289  HIS289      0.0817
     99  ND1        2.1160   39.7230  -33.0660 N.ar  289  HIS289     -0.2268
    100  CD2        0.5420   40.3410  -34.4510 C.ar  289  HIS289      0.1154
    101  CE1        2.5090   40.8540  -33.6240 C.ar  289  HIS289      0.1986
    102  NE2        1.5710   41.2510  -34.4670 N.ar  289  HIS289     -0.2212
@<TRIPOS>BOND
     1    60    58   am
     2    67    66   ar
     3    59    58    2
     4    58    57    1
     5    66    68   ar
     6    66    65    1
     7    65    62    1
     8    57    54    1
     9    56    55    2
    10    55    54    1
    11    55    61   am
    12    54    53    1
    13    62    61    1
    14    62    63    1
    15    45    44    2
    16    63    64    2
    17    19    17    1
    18    53    44   am
    19    44    43    1
    20    76    74    1
    21    17    16    2
    22    17    18    1
    23    75    74    1
    24    16    15    1
    25    41    40    1
    26    27    25   am
    27    40    37    1
    28    74    73    1
    29    43    42    1
    30    43    46    1
    31    73    70    1
    32    42    38   am
    33    48    50   ar
    34    48    47   ar
    35    50    52   ar
    36    38    39    2
    37    38    37    1
    38    15    14    1
    39    25    26    2
    40    25    24    1
    41    37    36    1
    42    46    47    1
    43    47    49   ar
    44    70    69    1
    45    70    71    1
    46    52    51   ar
    47    24    21    1
    48    14    13    1
    49    49    51   ar
    50    36    30   am
    51    71    72    2
    52    31    30    2
    53    30    29    1
    54    21    22    1
    55    21    20    1
    56    23    22    2
    57    13    10    1
    58    22    28   am
    59    20    11   am
    60    28    29    1
    61    29    32    1
    62    11    12    2
    63    11    10    1
    64    10     9    1
    65    82    83    1
    66    82    84    1
    67    82    81    1
    68    32    33    1
    69    32    34    1
    70     9     3   am
    71    81    78    1
    72    33    35    1
    73     3     4    2
    74     3     2    1
    75     7     5    1
    76    91    92    1
    77    91    90    1
    78    78    77    1
    79    78    79    1
    80     2     5    1
    81     2     1    1
    82    90    89    1
    83     5     6    1
    84    79    80    2
    85     8     6    1
    86    89    86    1
    87    86    85    1
    88    86    87    1
    89   102   100   ar
    90   102   101   ar
    91   100    98   ar
    92    87    88    2
    93   101    99   ar
    94    98    97    1
    95    98    99   ar
    96    97    94    1
    97    94    95    1
    98    94    93    1
    99    95    96    2
