@<TRIPOS>MOLECULE
tmp/2yveB00.pdb
 145 137 0 0 0
SMALL
GASTEIGER

@<TRIPOS>ATOM
      1  N         14.4300   -0.7260   31.0390 N.3    57  LEU57      -0.1245
      2  CA        14.4460    0.4960   31.8140 C.3    57  LEU57       0.1561
      3  C         13.1810    0.6340   32.6600 C.2    57  LEU57       0.2260
      4  O         13.2470    1.0890   33.7940 O.2    57  LEU57      -0.2867
      5  CB        14.6190    1.7000   30.8830 C.3    57  LEU57       0.0270
      6  CG        16.0070    1.7750   30.2240 C.3    57  LEU57       0.0019
      7  CD1       16.0110    3.0300   29.3440 C.3    57  LEU57       0.0001
      8  CD2       17.1270    1.8670   31.2700 C.3    57  LEU57       0.0001
      9  N         13.6790   -1.6050   35.6240 N.3    60  ASP60      -0.1225
     10  CA        14.6200   -1.0410   36.5920 C.3    60  ASP60       0.1805
     11  C         13.8880   -0.0340   37.5020 C.2    60  ASP60       0.2597
     12  O         14.1140    0.0140   38.7080 O.2    60  ASP60      -0.2718
     13  CB        15.7570   -0.2930   35.8900 C.3    60  ASP60       0.1424
     14  CG        16.7640   -1.2010   35.1960 C.2    60  ASP60       0.3668
     15  OD1       16.8010   -2.4250   35.4250 O.co2  60  ASP60      -0.2456
     16  OD2       17.5500   -0.6360   34.4030 O.co2  60  ASP60      -0.2456
     17  N         13.0280    0.7990   36.9130 N.am   61  TRP61      -0.1976
     18  CA        12.3110    1.7830   37.7010 C.3    61  TRP61       0.1640
     19  C         11.3480    1.0830   38.6640 C.2    61  TRP61       0.2290
     20  O         11.2860    1.4220   39.8560 O.2    61  TRP61      -0.2864
     21  CB        11.5730    2.7470   36.7640 C.3    61  TRP61       0.0576
     22  CG        10.9390    3.9280   37.4540 C.ar   61  TRP61       0.0006
     23  CD1       11.3760    4.5820   38.5720 C.ar   61  TRP61       0.0946
     24  CD2        9.7780    4.6370   37.0040 C.ar   61  TRP61       0.0152
     25  NE1       10.5570    5.6600   38.8400 N.ar   61  TRP61      -0.2442
     26  CE2        9.5680    5.7080   37.8920 C.ar   61  TRP61       0.0810
     27  CE3        8.8990    4.4640   35.9270 C.ar   61  TRP61       0.0012
     28  CZ2        8.5050    6.6110   37.7390 C.ar   61  TRP61       0.0191
     29  CZ3        7.8460    5.3610   35.7700 C.ar   61  TRP61       0.0001
     30  CH2        7.6580    6.4210   36.6730 C.ar   61  TRP61       0.0015
     31  N         13.2780   -0.2650   41.6660 N.3    64  GLU64      -0.1245
     32  CA        13.6850    0.7750   42.6060 C.3    64  GLU64       0.1567
     33  C         12.4750    1.2440   43.4230 C.2    64  GLU64       0.2260
     34  O         12.5670    1.4060   44.6440 O.2    64  GLU64      -0.2867
     35  CB        14.3180    1.9620   41.8640 C.3    64  GLU64       0.0388
     36  CG        14.7710    3.1050   42.7770 C.3    64  GLU64       0.1160
     37  CD        16.0080    2.7860   43.5990 C.2    64  GLU64       0.3649
     38  OE1       16.5490    1.6770   43.4610 O.co2  64  GLU64      -0.2457
     39  OE2       16.4410    3.6530   44.3870 O.co2  64  GLU64      -0.2457
     40  N         10.9050   10.5880   45.1310 N.3    84  VAL84      -0.1231
     41  CA        12.3070   10.3430   45.4450 C.3    84  VAL84       0.1692
     42  C         13.0690    9.7670   44.2440 C.2    84  VAL84       0.2593
     43  O         14.1870   10.1990   43.9590 O.2    84  VAL84      -0.2718
     44  CB        12.4170    9.3970   46.6630 C.3    84  VAL84       0.0266
     45  CG1       13.8520    8.8840   46.8420 C.3    84  VAL84       0.0020
     46  CG2       11.9530   10.1420   47.9160 C.3    84  VAL84       0.0020
     47  N         12.4710    8.8130   43.5200 N.am   85  THR85      -0.1939
     48  CA        13.2010    8.2500   42.3690 C.3    85  THR85       0.2028
     49  C         13.4210    9.2800   41.2610 C.2    85  THR85       0.2642
     50  O         14.4090    9.2200   40.5470 O.2    85  THR85      -0.2714
     51  CB        12.4970    6.9960   41.7520 C.3    85  THR85       0.1808
     52  OG1       11.2050    7.3440   41.2300 O.3    85  THR85      -0.2208
     53  CG2       12.3810    5.8830   42.7890 C.3    85  THR85       0.0379
     54  N         12.5010   10.2230   41.1270 N.am   86  LEU86      -0.1977
     55  CA        12.6010   11.2520   40.0780 C.3    86  LEU86       0.1596
     56  C         13.4850   12.4210   40.4490 C.2    86  LEU86       0.2287
     57  O         13.7330   13.2970   39.6250 O.2    86  LEU86      -0.2864
     58  CB        11.1970   11.7920   39.7470 C.3    86  LEU86       0.0297
     59  CG        10.3350   10.8360   38.9240 C.3    86  LEU86       0.0022
     60  CD1        8.9030   11.3630   38.8380 C.3    86  LEU86       0.0001
     61  CD2       10.9280   10.6810   37.5470 C.3    86  LEU86       0.0001
     62  N         16.6700   12.5080   41.0360 N.3    88  GLU88      -0.1245
     63  CA        17.9760   12.5120   40.3870 C.3    88  GLU88       0.1567
     64  C         17.7910   12.8400   38.9080 C.2    88  GLU88       0.2260
     65  O         16.8100   12.4270   38.3090 O.2    88  GLU88      -0.2867
     66  CB        18.6550   11.1400   40.4960 C.3    88  GLU88       0.0388
     67  CG        19.0890   10.7590   41.8940 C.3    88  GLU88       0.1160
     68  CD        20.0730    9.6140   41.8810 C.2    88  GLU88       0.3649
     69  OE1       19.7340    8.5360   41.3420 O.co2  88  GLU88      -0.2457
     70  OE2       21.1940    9.7950   42.4030 O.co2  88  GLU88      -0.2457
     71  N         18.1900    7.2260   28.9410 N.3    94  GLU94      -0.1245
     72  CA        16.7990    7.0730   29.3510 C.3    94  GLU94       0.1567
     73  C         15.9350    8.1590   28.7470 C.2    94  GLU94       0.2260
     74  O         14.8450    7.8930   28.2500 O.2    94  GLU94      -0.2867
     75  CB        16.6750    7.0970   30.8630 C.3    94  GLU94       0.0388
     76  CG        15.2940    6.7600   31.3140 C.3    94  GLU94       0.1160
     77  CD        15.3070    5.9730   32.5880 C.2    94  GLU94       0.3649
     78  OE1       15.6640    6.5520   33.6360 O.co2  94  GLU94      -0.2457
     79  OE2       14.9820    4.7670   32.5300 O.co2  94  GLU94      -0.2457
     80  N         12.8340    7.6090   26.2110 N.3    98  LEU98      -0.1245
     81  CA        11.4950    8.1100   26.5290 C.3    98  LEU98       0.1561
     82  C         10.9710    9.0200   25.3970 C.2    98  LEU98       0.2260
     83  O          9.7950    8.9630   25.0500 O.2    98  LEU98      -0.2867
     84  CB        11.5380    8.8940   27.8340 C.3    98  LEU98       0.0270
     85  CG        11.0110    8.4970   29.2310 C.3    98  LEU98       0.0019
     86  CD1       10.3990    7.1160   29.2870 C.3    98  LEU98       0.0001
     87  CD2       12.0640    8.7720   30.3020 C.3    98  LEU98       0.0001
     88  N          6.2300    0.8640   28.6450 N.3   111  TRP111     -0.1241
     89  CA         6.2820    1.7860   29.7670 C.3   111  TRP111      0.1605
     90  C          4.9570    1.8610   30.5150 C.2   111  TRP111      0.2264
     91  O          4.8970    2.2890   31.6600 O.2   111  TRP111     -0.2867
     92  CB         6.6310    3.1970   29.2700 C.3   111  TRP111      0.0550
     93  CG         8.0810    3.3380   28.9230 C.ar  111  TRP111      0.0003
     94  CD1        8.6590    3.2840   27.6780 C.ar  111  TRP111      0.0946
     95  CD2        9.1400    3.5160   29.8540 C.ar  111  TRP111      0.0152
     96  NE1       10.0290    3.4140   27.7870 N.ar  111  TRP111     -0.2442
     97  CE2       10.3460    3.5540   29.1140 C.ar  111  TRP111      0.0810
     98  CE3        9.1850    3.6450   31.2500 C.ar  111  TRP111      0.0012
     99  CZ2       11.5880    3.7120   29.7340 C.ar  111  TRP111      0.0191
    100  CZ3       10.4180    3.7990   31.8600 C.ar  111  TRP111      0.0001
    101  CH2       11.6000    3.8290   31.1060 C.ar  111  TRP111      0.0015
    102  N          4.0440    2.8210   34.5710 N.3   115  ASN115     -0.1240
    103  CA         3.3420    4.0980   34.7370 C.3   115  ASN115      0.1653
    104  C          1.9680    3.8930   35.3980 C.2   115  ASN115      0.2266
    105  O          1.5920    4.5990   36.3400 O.2   115  ASN115     -0.2867
    106  CB         3.1130    4.7810   33.3810 C.3   115  ASN115      0.1155
    107  CG         4.2380    5.7140   32.9690 C.2   115  ASN115      0.2627
    108  OD1        4.1590    6.9250   33.1750 O.2   115  ASN115     -0.2716
    109  ND2        5.2590    5.1670   32.3720 N.am  115  ASN115     -0.0877
    110  N          2.1450    5.9900   38.7590 N.3   119  ILE119     -0.1245
    111  CA         1.7990    7.3990   38.5540 C.3   119  ILE119      0.1561
    112  C          0.3480    7.6550   38.9300 C.2   119  ILE119      0.2260
    113  O         -0.5390    6.8750   38.5960 O.2   119  ILE119     -0.2867
    114  CB         2.0310    7.8150   37.0700 C.3   119  ILE119      0.0252
    115  CG1        3.4970    7.5700   36.6760 C.3   119  ILE119      0.0019
    116  CG2        1.6540    9.2850   36.8500 C.3   119  ILE119      0.0019
    117  CD1        4.5090    8.3490   37.4810 C.3   119  ILE119      0.0001
    118  N          3.3250   15.1820   41.1960 N.3   138  GLN138     -0.1245
    119  CA         3.9180   14.4090   40.1100 C.3   138  GLN138      0.1566
    120  C          4.5580   15.3310   39.0730 C.2   138  GLN138      0.2260
    121  O          5.6780   15.0780   38.6210 O.2   138  GLN138     -0.2867
    122  CB         2.8450   13.5570   39.4210 C.3   138  GLN138      0.0367
    123  CG         3.3450   12.8000   38.2270 C.3   138  GLN138      0.0905
    124  CD         4.2870   11.7030   38.6290 C.2   138  GLN138      0.2608
    125  OE1        3.9650   10.9170   39.5240 O.2   138  GLN138     -0.2717
    126  NE2        5.4510   11.6190   37.9770 N.am  138  GLN138     -0.0878
    127  N          8.4840   15.5150   37.9860 N.3   142  ASP142     -0.1239
    128  CA         8.9060   15.3570   36.5890 C.3   142  ASP142      0.1674
    129  C          9.7950   16.5460   36.1840 C.2   142  ASP142      0.2266
    130  O         10.7800   16.3710   35.4620 O.2   142  ASP142     -0.2867
    131  CB         7.6780   15.3180   35.6630 C.3   142  ASP142      0.1410
    132  CG         6.8830   14.0450   35.7730 C.2   142  ASP142      0.3668
    133  OD1        7.4540   13.0070   36.1780 O.co2 142  ASP142     -0.2456
    134  OD2        5.6740   14.0900   35.4440 O.co2 142  ASP142     -0.2456
    135  N         13.2010   15.9740   37.5710 N.3   145  PHE145     -0.1241
    136  CA        13.8110   14.8860   36.8160 C.3   145  PHE145      0.1605
    137  C         14.4900   15.3910   35.5320 C.2   145  PHE145      0.2264
    138  O         15.6060   14.9750   35.1900 O.2   145  PHE145     -0.2867
    139  CB        12.6760   13.8980   36.4860 C.3   145  PHE145      0.0534
    140  CG        13.0960   12.6170   35.8150 C.ar  145  PHE145     -0.0203
    141  CD1       13.9980   11.7470   36.4180 C.ar  145  PHE145     -0.0042
    142  CD2       12.4780   12.2330   34.6260 C.ar  145  PHE145     -0.0042
    143  CE1       14.2590   10.5080   35.8360 C.ar  145  PHE145     -0.0003
    144  CE2       12.7350   11.0120   34.0550 C.ar  145  PHE145     -0.0003
    145  CZ        13.6250   10.1510   34.6670 C.ar  145  PHE145     -0.0000
@<TRIPOS>BOND
     1    83    82    2
     2    82    81    1
     3    80    81    1
     4    81    84    1
     5    94    96   ar
     6    94    93   ar
     7    96    97   ar
     8    84    85    1
     9    74    73    2
    10    88    89    1
    11    73    72    1
    12    93    92    1
    13    93    95   ar
    14    71    72    1
    15    97    99   ar
    16    97    95   ar
    17    85    86    1
    18    85    87    1
    19    92    89    1
    20     7     6    1
    21    72    75    1
    22    99   101   ar
    23    89    90    1
    24    95    98   ar
    25     6     5    1
    26     6     8    1
    27    90    91    2
    28    75    76    1
    29     5     2    1
    30     1     2    1
    31   101   100   ar
    32    98   100   ar
    33    76    77    1
    34     2     3    1
    35   109   107   am
    36    79    77   ar
    37    77    78   ar
    38     3     4    2
    39   107   108    2
    40   107   106    1
    41   106   103    1
    42   144   142   ar
    43   144   145   ar
    44    16    14   ar
    45   102   103    1
    46   142   140   ar
    47   145   143   ar
    48   103   104    1
    49   138   137    2
    50    14    15   ar
    51    14    13    1
    52   104   105    2
    53   134   132   ar
    54   130   129    2
    55   137   136    1
    56     9    10    1
    57   131   132    1
    58   131   128    1
    59    29    27   ar
    60    29    30   ar
    61   132   133   ar
    62   140   141   ar
    63   140   139    1
    64   143   141   ar
    65    13    10    1
    66    27    24   ar
    67   129   128    1
    68   139   136    1
    69   128   127    1
    70    10    11    1
    71    30    28   ar
    72   115   114    1
    73   115   117    1
    74    21    22    1
    75    21    18    1
    76   136   135    1
    77   116   114    1
    78    17    11   am
    79    17    18    1
    80    24    22   ar
    81    24    26   ar
    82   114   111    1
    83    22    23   ar
    84    11    12    2
    85    61    59    1
    86    18    19    1
    87    28    26   ar
    88    26    25   ar
    89   126   124   am
    90   123   124    1
    91   123   122    1
    92    65    64    2
    93   111   110    1
    94   111   112    1
    95    23    25   ar
    96   113   112    2
    97   121   120    2
    98   124   125    2
    99    19    20    2
   100    60    59    1
   101    64    63    1
   102    59    58    1
   103   120   119    1
   104   122   119    1
   105    57    56    2
   106    58    55    1
   107    55    56    1
   108    55    54    1
   109   119   118    1
   110    63    66    1
   111    63    62    1
   112    66    67    1
   113    50    49    2
   114    54    49   am
   115    52    51    1
   116    49    48    1
   117    69    68   ar
   118    31    32    1
   119    51    48    1
   120    51    53    1
   121    35    32    1
   122    35    36    1
   123    68    67    1
   124    68    70   ar
   125    48    47    1
   126    32    33    1
   127    36    37    1
   128    33    34    2
   129    38    37   ar
   130    47    42   am
   131    37    39   ar
   132    43    42    2
   133    42    41    1
   134    40    41    1
   135    41    44    1
   136    44    45    1
   137    44    46    1
