@<TRIPOS>MOLECULE
tmp/2yvjA01.pdb
 168 158 0 0 0
SMALL
GASTEIGER

@<TRIPOS>ATOM
      1  N          5.4350  -19.9130   29.2310 N.3   110  ARG110     -0.1245
      2  CA         5.5470  -19.4810   30.6120 C.3   110  ARG110      0.1563
      3  C          4.8000  -20.4180   31.5600 C.2   110  ARG110      0.2260
      4  O          3.7220  -20.0720   32.0440 O.2   110  ARG110     -0.2867
      5  CB         5.0030  -18.0630   30.7780 C.3   110  ARG110      0.0307
      6  CG         4.6970  -17.3780   29.4590 C.3   110  ARG110      0.0489
      7  CD         3.8800  -16.1160   29.6630 C.3   110  ARG110      0.2205
      8  NE         2.6820  -16.3190   30.4590 N.pl3 110  ARG110     -0.0865
      9  CZ         2.5680  -16.0770   31.7560 C.cat 110  ARG110      0.5346
     10  NH1        3.6000  -15.6100   32.4480 N.pl3 110  ARG110      0.1354
     11  NH2        1.4130  -16.3050   32.3770 N.pl3 110  ARG110      0.1354
     12  N          3.8060  -23.1040   34.7250 N.3   112  LEU112     -0.1245
     13  CA         3.1780  -22.8340   36.0090 C.3   112  LEU112      0.1561
     14  C          4.2070  -22.7960   37.1280 C.2   112  LEU112      0.2260
     15  O          4.9730  -23.7460   37.3130 O.2   112  LEU112     -0.2867
     16  CB         2.1470  -23.9160   36.3350 C.3   112  LEU112      0.0270
     17  CG         0.7120  -23.4520   36.5640 C.3   112  LEU112      0.0019
     18  CD1        0.5380  -22.0030   36.1610 C.3   112  LEU112      0.0001
     19  CD2       -0.2530  -24.3500   35.8060 C.3   112  LEU112      0.0001
     20  N          5.3970  -27.1530   23.5290 N.3   126  ARG126     -0.1245
     21  CA         5.7460  -26.2420   22.4310 C.3   126  ARG126      0.1563
     22  C          6.6380  -26.9130   21.3910 C.2   126  ARG126      0.2260
     23  O          6.9070  -26.2860   20.3610 O.2   126  ARG126     -0.2867
     24  CB         6.3640  -24.9570   22.9860 C.3   126  ARG126      0.0307
     25  CG         5.4530  -23.7510   22.7150 C.3   126  ARG126      0.0489
     26  CD         6.2610  -22.4820   22.5640 C.3   126  ARG126      0.2205
     27  NE         5.8820  -21.6340   21.4450 N.pl3 126  ARG126     -0.0865
     28  CZ         6.6650  -21.3490   20.4090 C.cat 126  ARG126      0.5346
     29  NH1        7.8850  -21.8590   20.3530 N.pl3 126  ARG126      0.1354
     30  NH2        6.2420  -20.5640   19.4270 N.pl3 126  ARG126      0.1354
     31  N         -4.6030  -26.1580   31.8350 N.3   147  VAL147     -0.1231
     32  CA        -4.5830  -24.8370   32.4350 C.3   147  VAL147      0.1692
     33  C         -4.4530  -23.7350   31.3800 C.2   147  VAL147      0.2593
     34  O         -3.4000  -23.5850   30.7660 O.2   147  VAL147     -0.2718
     35  CB        -3.4130  -24.6840   33.4290 C.3   147  VAL147      0.0266
     36  CG1       -3.6810  -23.4850   34.3360 C.3   147  VAL147      0.0020
     37  CG2       -3.1980  -25.9570   34.2230 C.3   147  VAL147      0.0020
     38  N         -5.5130  -22.9680   31.1480 N.am  148  GLY148     -0.1942
     39  CA        -5.5630  -21.9160   30.1530 C.3   148  GLY148      0.2014
     40  C         -6.5070  -22.1830   29.0120 C.2   148  GLY148      0.2639
     41  O         -6.5170  -23.2690   28.4280 O.2   148  GLY148     -0.2714
     42  N         -7.3190  -21.2050   28.6180 N.am  149  GLY149     -0.1939
     43  CA        -8.3210  -21.3700   27.5860 C.3   149  GLY149      0.2014
     44  C         -8.1390  -20.6020   26.3020 C.2   149  GLY149      0.2639
     45  O         -9.0350  -19.9960   25.6990 O.2   149  GLY149     -0.2714
     46  N         -6.8870  -20.6370   25.8300 N.am  150  GLY150     -0.1939
     47  CA        -6.5190  -20.0740   24.5510 C.3   150  GLY150      0.2014
     48  C         -6.4750  -21.1480   23.4840 C.2   150  GLY150      0.2639
     49  O         -7.1230  -22.1920   23.5430 O.2   150  GLY150     -0.2714
     50  N         -5.7000  -20.9170   22.4180 N.am  151  VAL151     -0.1963
     51  CA        -5.8070  -21.9060   21.3370 C.3   151  VAL151      0.1727
     52  C         -5.1730  -23.2250   21.7180 C.2   151  VAL151      0.2616
     53  O         -5.6490  -24.3060   21.3410 O.2   151  VAL151     -0.2715
     54  CB        -5.1930  -21.3040   20.0590 C.3   151  VAL151      0.0290
     55  CG1       -5.8700  -21.8310   18.8060 C.3   151  VAL151      0.0023
     56  CG2       -5.3060  -19.7860   20.1390 C.3   151  VAL151      0.0023
     57  N         -4.0850  -23.2130   22.4910 N.am  152  ILE152     -0.1977
     58  CA        -3.4550  -24.5140   22.7710 C.3   152  ILE152      0.1596
     59  C         -4.2740  -25.2840   23.7940 C.2   152  ILE152      0.2287
     60  O         -4.3650  -26.5130   23.7960 O.2   152  ILE152     -0.2864
     61  CB        -2.0020  -24.3320   23.2300 C.3   152  ILE152      0.0276
     62  CG1       -1.1230  -23.5070   22.2770 C.3   152  ILE152      0.0022
     63  CG2       -1.3090  -25.6620   23.4860 C.3   152  ILE152      0.0022
     64  CD1        0.3560  -23.7910   22.4960 C.3   152  ILE152      0.0001
     65  N         -9.2650  -25.1290   33.3860 N.3   170  VAL170     -0.1231
     66  CA        -9.2070  -23.9310   34.1880 C.3   170  VAL170      0.1692
     67  C         -9.0180  -22.6790   33.3510 C.2   170  VAL170      0.2592
     68  O         -8.0510  -22.5660   32.5900 O.2   170  VAL170     -0.2718
     69  CB        -8.0150  -24.0180   35.1700 C.3   170  VAL170      0.0266
     70  CG1       -8.0750  -22.8800   36.1690 C.3   170  VAL170      0.0020
     71  CG2       -8.0000  -25.3790   35.8530 C.3   170  VAL170      0.0020
     72  N         -9.9060  -21.6920   33.4640 N.am  171  GLU171     -0.1966
     73  CA        -9.6030  -20.4650   32.7010 C.3   171  GLU171      0.1733
     74  C         -9.6250  -19.2700   33.6410 C.2   171  GLU171      0.2617
     75  O        -10.5310  -19.1350   34.4660 O.2   171  GLU171     -0.2715
     76  CB       -10.5600  -20.3860   31.5280 C.3   171  GLU171      0.0429
     77  CG       -10.6790  -19.0610   30.8190 C.3   171  GLU171      0.1163
     78  CD        -9.5240  -18.8110   29.8630 C.2   171  GLU171      0.3649
     79  OE1       -9.6610  -19.1720   28.6770 O.co2 171  GLU171     -0.2457
     80  OE2       -8.5020  -18.2500   30.3080 O.co2 171  GLU171     -0.2457
     81  N         -8.6250  -18.3870   33.5650 N.am  172  THR172     -0.1937
     82  CA        -8.5850  -17.2500   34.4900 C.3   172  THR172      0.2028
     83  C         -9.4980  -16.1340   34.0000 C.2   172  THR172      0.2642
     84  O        -10.1290  -15.4410   34.8030 O.2   172  THR172     -0.2714
     85  CB        -7.1540  -16.7310   34.7040 C.3   172  THR172      0.1808
     86  OG1       -6.4320  -16.7630   33.4670 O.3   172  THR172     -0.2208
     87  CG2       -6.3920  -17.6350   35.6700 C.3   172  THR172      0.0379
     88  N         -9.6210  -15.9370   32.6890 N.am  173  GLN173     -0.1976
     89  CA       -10.6160  -14.9940   32.1870 C.3   173  GLN173      0.1601
     90  C        -12.0230  -15.6070   32.2150 C.2   173  GLN173      0.2287
     91  O        -12.1860  -16.8260   32.1680 O.2   173  GLN173     -0.2864
     92  CB       -10.3020  -14.5390   30.7630 C.3   173  GLN173      0.0394
     93  CG        -9.5450  -13.2400   30.6400 C.3   173  GLN173      0.0908
     94  CD       -10.2970  -11.9340   30.6470 C.2   173  GLN173      0.2608
     95  OE1      -10.2280  -11.1740   31.6250 O.2   173  GLN173     -0.2717
     96  NE2      -11.0140  -11.5820   29.5820 N.am  173  GLN173     -0.0878
     97  N        -10.1770  -17.6560   24.8200 N.3   177  MET177     -0.1230
     98  CA        -9.5200  -16.9480   23.7300 C.3   177  MET177      0.1702
     99  C         -9.6870  -15.4480   23.8090 C.2   177  MET177      0.2593
    100  O        -10.1260  -14.7970   22.8650 O.2   177  MET177     -0.2718
    101  CB       -10.0580  -17.4830   22.3890 C.3   177  MET177      0.0401
    102  CG        -9.5350  -18.8870   22.1020 C.3   177  MET177      0.0596
    103  SD       -10.2680  -19.7140   20.6930 S.3   177  MET177     -0.1393
    104  CE        -9.7380  -18.7100   19.3140 C.3   177  MET177      0.0692
    105  N         -9.3440  -14.8630   24.9560 N.am  178  SER178     -0.1938
    106  CA        -9.4820  -13.4140   25.0850 C.3   178  SER178      0.2055
    107  C         -8.4700  -12.7200   24.1770 C.2   178  SER178      0.2642
    108  O         -8.7330  -11.6670   23.5920 O.2   178  SER178     -0.2714
    109  CB        -9.2790  -13.0040   26.5410 C.3   178  SER178      0.2130
    110  OG        -8.2760  -13.8070   27.1530 O.3   178  SER178     -0.2179
    111  N         -7.2900  -13.3360   24.0450 N.am  179  ARG179     -0.1977
    112  CA        -6.2030  -12.6790   23.3160 C.3   179  ARG179      0.1597
    113  C         -6.5910  -12.2930   21.9030 C.2   179  ARG179      0.2287
    114  O         -6.3520  -11.1560   21.4630 O.2   179  ARG179     -0.2864
    115  CB        -4.9490  -13.5690   23.3030 C.3   179  ARG179      0.0334
    116  CG        -3.7290  -12.8400   22.7450 C.3   179  ARG179      0.0492
    117  CD        -2.4310  -13.5790   23.0280 C.3   179  ARG179      0.2205
    118  NE        -2.4630  -14.9410   22.5270 N.pl3 179  ARG179     -0.0865
    119  CZ        -2.2940  -15.3250   21.2700 C.cat 179  ARG179      0.5346
    120  NH1       -2.0650  -14.4480   20.3060 N.pl3 179  ARG179      0.1354
    121  NH2       -2.3550  -16.6120   20.9520 N.pl3 179  ARG179      0.1354
    122  N         -5.3780  -21.8320   39.6380 N.3   206  VAL206     -0.1245
    123  CA        -4.6780  -22.9850   40.2060 C.3   206  VAL206      0.1561
    124  C         -3.8330  -22.4980   41.3780 C.2   206  VAL206      0.2260
    125  O         -2.7580  -21.9490   41.1530 O.2   206  VAL206     -0.2867
    126  CB        -3.7930  -23.7040   39.1790 C.3   206  VAL206      0.0252
    127  CG1       -3.5140  -25.1370   39.6100 C.3   206  VAL206      0.0019
    128  CG2       -4.4530  -23.6730   37.8070 C.3   206  VAL206      0.0019
    129  N         -0.8670  -24.2700   29.0120 N.3   230  GLY230     -0.1210
    130  CA        -0.8270  -23.4010   27.8530 C.3   230  GLY230      0.1956
    131  C         -1.3520  -22.0120   28.2040 C.2   230  GLY230      0.2612
    132  O         -2.4200  -21.6070   27.7370 O.2   230  GLY230     -0.2717
    133  N         -0.5810  -21.3250   29.0300 N.am  231  ILE231     -0.1965
    134  CA        -0.8530  -19.9870   29.5390 C.3   231  ILE231      0.1727
    135  C         -0.2400  -18.9200   28.6450 C.2   231  ILE231      0.2617
    136  O         -0.2720  -17.7230   28.9180 O.2   231  ILE231     -0.2715
    137  CB        -0.2990  -19.8830   30.9690 C.3   231  ILE231      0.0290
    138  CG1       -0.8750  -20.9270   31.9410 C.3   231  ILE231      0.0022
    139  CG2       -0.4670  -18.5070   31.5860 C.3   231  ILE231      0.0023
    140  CD1       -0.5020  -20.5820   33.3710 C.3   231  ILE231      0.0001
    141  N          0.3540  -19.3330   27.5200 N.am  232  GLY232     -0.1940
    142  CA         0.9860  -18.3920   26.6080 C.3   232  GLY232      0.2014
    143  C          2.5050  -18.4800   26.5930 C.2   232  GLY232      0.2638
    144  O          3.1090  -19.0830   27.4830 O.2   232  GLY232     -0.2714
    145  N          3.0950  -17.8720   25.5760 N.am  233  VAL233     -0.1977
    146  CA         4.5100  -17.8400   25.2630 C.3   233  VAL233      0.1596
    147  C          5.1300  -16.4590   25.4370 C.2   233  VAL233      0.2287
    148  O          4.5030  -15.4460   25.1140 O.2   233  VAL233     -0.2864
    149  CB         4.7430  -18.2610   23.7950 C.3   233  VAL233      0.0276
    150  CG1        3.9940  -19.5370   23.4500 C.3   233  VAL233      0.0022
    151  CG2        4.3230  -17.1320   22.8630 C.3   233  VAL233      0.0022
    152  N          8.0010  -15.0960   15.8330 N.3   269  ASP269     -0.1239
    153  CA         7.4470  -14.8660   17.1500 C.3   269  ASP269      0.1674
    154  C          8.2800  -13.9270   18.0100 C.2   269  ASP269      0.2266
    155  O          7.6980  -13.2010   18.8240 O.2   269  ASP269     -0.2867
    156  CB         7.3070  -16.1660   17.9450 C.3   269  ASP269      0.1410
    157  CG         6.1590  -17.0210   17.4550 C.2   269  ASP269      0.3668
    158  OD1        5.5760  -16.6640   16.4090 O.co2 269  ASP269     -0.2456
    159  OD2        5.9000  -18.0440   18.1250 O.co2 269  ASP269     -0.2456
    160  N          1.7930  -13.7640   17.0360 N.3   285  GLU285     -0.1245
    161  CA         2.1470  -15.1630   17.2470 C.3   285  GLU285      0.1567
    162  C          1.4690  -16.1270   16.2830 C.2   285  GLU285      0.2260
    163  O          0.7630  -17.0150   16.7650 O.2   285  GLU285     -0.2867
    164  CB         1.8050  -15.5290   18.7030 C.3   285  GLU285      0.0388
    165  CG         2.4370  -14.5970   19.7300 C.3   285  GLU285      0.1160
    166  CD         1.4540  -14.0580   20.7510 C.2   285  GLU285      0.3649
    167  OE1        0.5050  -14.8000   21.0950 O.co2 285  GLU285     -0.2457
    168  OE2        1.6140  -12.9060   21.2270 O.co2 285  GLU285     -0.2457
@<TRIPOS>BOND
     1   152   153    1
     2   162   163    2
     3   162   161    1
     4   158   157   ar
     5   160   161    1
     6   153   156    1
     7   153   154    1
     8   161   164    1
     9   157   156    1
    10   157   159   ar
    11   154   155    2
    12   164   165    1
    13    55    54    1
    14   104   103    1
    15    30    28    1
    16   165   166    1
    17    54    56    1
    18    54    51    1
    19   120   119    1
    20    29    28    1
    21    23    22    2
    22    28    27    2
    23   103   102    1
    24   166   167   ar
    25   166   168   ar
    26   121   119    1
    27   119   118    2
    28    51    52    1
    29    51    50    1
    30    53    52    2
    31    22    21    1
    32    27    26    1
    33   114   113    2
    34    52    57   am
    35   113   112    1
    36   102   101    1
    37    62    64    1
    38    62    61    1
    39   101    98    1
    40    50    48   am
    41    21    24    1
    42    21    20    1
    43    57    58    1
    44   118   117    1
    45    26    25    1
    46    25    24    1
    47   116   117    1
    48   116   115    1
    49    58    61    1
    50    58    59    1
    51   151   149    1
    52   100    99    2
    53    61    63    1
    54   115   112    1
    55   112   111    1
    56   150   149    1
    57    48    49    2
    58    48    47    1
    59   108   107    2
    60    98    99    1
    61    98    97    1
    62    59    60    2
    63   149   146    1
    64    99   105   am
    65   111   107   am
    66   107   106    1
    67    47    46    1
    68   105   106    1
    69   106   109    1
    70   148   147    2
    71   146   147    1
    72   146   145    1
    73   145   143   am
    74    45    44    2
    75    46    44   am
    76    44    43    1
    77   109   110    1
    78   143   142    1
    79   143   144    2
    80   142   141    1
    81   141   135   am
    82    43    42    1
    83   132   131    2
    84   130   131    1
    85   130   129    1
    86   131   133   am
    87    41    40    2
    88    42    40   am
    89   135   136    2
    90   135   134    1
    91    79    78   ar
    92    40    39    1
    93   133   134    1
    94     1     2    1
    95     6     7    1
    96     6     5    1
    97   134   137    1
    98    96    94   am
    99     7     8    1
   100    78    80   ar
   101    78    77    1
   102    39    38    1
   103     8     9    2
   104     2     5    1
   105     2     3    1
   106    93    94    1
   107    93    92    1
   108    94    95    2
   109    92    89    1
   110    34    33    2
   111    77    76    1
   112   137   139    1
   113   137   138    1
   114    38    33   am
   115    33    32    1
   116    76    73    1
   117     3     4    2
   118     9    11    1
   119     9    10    1
   120    31    32    1
   121   138   140    1
   122    91    90    2
   123    89    90    1
   124    89    88    1
   125    32    35    1
   126    68    67    2
   127    88    83   am
   128    73    72    1
   129    73    74    1
   130    67    72   am
   131    67    66    1
   132    65    66    1
   133    35    37    1
   134    35    36    1
   135    86    85    1
   136    81    74   am
   137    81    82    1
   138    74    75    2
   139    83    82    1
   140    83    84    2
   141    66    69    1
   142    82    85    1
   143    85    87    1
   144    12    13    1
   145    69    71    1
   146    69    70    1
   147    19    17    1
   148    13    16    1
   149    13    14    1
   150    18    17    1
   151    16    17    1
   152    14    15    2
   153   128   126    1
   154   126   127    1
   155   126   123    1
   156   122   123    1
   157   123   124    1
   158   125   124    2
