@<TRIPOS>MOLECULE
tmp/2yvkC00.pdb
 159 150 0 0 0
SMALL
GASTEIGER

@<TRIPOS>ATOM
      1  N         -3.4420   -5.3790   25.8630 N.3    48  LEU48      -0.1245
      2  CA        -3.3960   -4.1550   26.6630 C.3    48  LEU48       0.1561
      3  C         -3.8380   -2.9200   25.8880 C.2    48  LEU48       0.2260
      4  O         -3.4070   -1.7990   26.1650 O.2    48  LEU48      -0.2867
      5  CB        -1.9930   -3.9240   27.2430 C.3    48  LEU48       0.0270
      6  CG        -1.2880   -5.0900   27.9490 C.3    48  LEU48       0.0019
      7  CD1        0.1040   -4.6310   28.3780 C.3    48  LEU48       0.0001
      8  CD2       -2.0980   -5.5710   29.1470 C.3    48  LEU48       0.0001
      9  N         -6.7660   -2.0130   29.4630 N.3    51  ARG51      -0.1231
     10  CA        -6.1880   -2.5590   30.6810 C.3    51  ARG51       0.1694
     11  C         -6.7160   -1.8040   31.8810 C.2    51  ARG51       0.2593
     12  O         -7.4350   -0.8280   31.7260 O.2    51  ARG51      -0.2718
     13  CB        -4.6510   -2.5200   30.6230 C.3    51  ARG51       0.0321
     14  CG        -4.0320   -1.3420   29.8800 C.3    51  ARG51       0.0489
     15  CD        -4.1510   -0.0540   30.6580 C.3    51  ARG51       0.2205
     16  NE        -3.6650   -0.1690   32.0310 N.pl3  51  ARG51      -0.0865
     17  CZ        -3.8600    0.7610   32.9580 C.cat  51  ARG51       0.5346
     18  NH1       -3.3950    0.5970   34.1850 N.pl3  51  ARG51       0.1354
     19  NH2       -4.5270    1.8620   32.6500 N.pl3  51  ARG51       0.1354
     20  N         -6.3480   -2.2560   33.0740 N.am   52  GLY52      -0.1942
     21  CA        -6.8490   -1.6360   34.2830 C.3    52  GLY52       0.2014
     22  C         -8.0030   -2.5350   34.6660 C.2    52  GLY52       0.2639
     23  O         -8.9630   -2.6580   33.9150 O.2    52  GLY52      -0.2714
     24  N         -7.9070   -3.1730   35.8230 N.am   53  ALA53      -0.1963
     25  CA        -8.9340   -4.1040   36.2760 C.3    53  ALA53       0.1713
     26  C        -10.3890   -3.7200   35.9820 C.2    53  ALA53       0.2458
     27  O        -11.1190   -4.4850   35.3520 O.2    53  ALA53      -0.2730
     28  CB        -8.7570   -4.3770   37.7660 C.3    53  ALA53       0.0333
     29  N        -10.8300   -2.5280   36.4250 N.am   54  PRO54      -0.2727
     30  CA       -12.2150   -2.1140   36.1810 C.3    54  PRO54       0.1402
     31  C        -12.5930   -2.0230   34.7080 C.2    54  PRO54       0.2269
     32  O        -13.6430   -2.5120   34.2950 O.2    54  PRO54      -0.2865
     33  CB       -12.2990   -0.7720   36.8890 C.3    54  PRO54       0.0296
     34  CG       -11.3280   -0.9440   38.0230 C.3    54  PRO54       0.0237
     35  CD       -10.1570   -1.5670   37.3130 C.3    54  PRO54       0.0939
     36  N        -11.2760   -3.5610   32.4120 N.3    56  ILE56      -0.1245
     37  CA       -11.2460   -4.9270   31.9200 C.3    56  ILE56       0.1561
     38  C        -12.5640   -5.6580   32.1710 C.2    56  ILE56       0.2260
     39  O        -13.1210   -6.2830   31.2690 O.2    56  ILE56      -0.2867
     40  CB       -10.0730   -5.7150   32.5560 C.3    56  ILE56       0.0252
     41  CG1       -8.7450   -5.1060   32.0930 C.3    56  ILE56       0.0019
     42  CG2      -10.1500   -7.1880   32.1660 C.3    56  ILE56       0.0019
     43  CD1       -7.5190   -5.7160   32.7250 C.3    56  ILE56       0.0001
     44  N         -6.8760  -12.9410   30.7100 N.3    94  ARG94      -0.1245
     45  CA        -5.8940  -12.6290   31.7530 C.3    94  ARG94       0.1563
     46  C         -6.3380  -13.2380   33.0820 C.2    94  ARG94       0.2260
     47  O         -7.5270  -13.2730   33.3850 O.2    94  ARG94      -0.2867
     48  CB        -5.6910  -11.1160   31.8670 C.3    94  ARG94       0.0307
     49  CG        -5.0380  -10.5160   30.6260 C.3    94  ARG94       0.0489
     50  CD        -4.7820   -9.0280   30.7770 C.3    94  ARG94       0.2205
     51  NE        -3.7590   -8.7340   31.7780 N.pl3  94  ARG94      -0.0865
     52  CZ        -3.4220   -7.5020   32.1550 C.cat  94  ARG94       0.5346
     53  NH1       -4.0270   -6.4540   31.6110 N.pl3  94  ARG94       0.1354
     54  NH2       -2.4920   -7.3180   33.0800 N.pl3  94  ARG94       0.1354
     55  N          1.9750    4.2570   41.3440 N.3   159  ILE159     -0.1231
     56  CA         2.5590    3.3350   40.3710 C.3   159  ILE159      0.1692
     57  C          1.4960    2.8510   39.3880 C.2   159  ILE159      0.2592
     58  O          0.3120    2.8940   39.6820 O.2   159  ILE159     -0.2718
     59  CB         3.2190    2.1310   41.0720 C.3   159  ILE159      0.0266
     60  CG1        4.0870    1.3570   40.0680 C.3   159  ILE159      0.0019
     61  CG2        2.1490    1.2520   41.6850 C.3   159  ILE159      0.0020
     62  CD1        4.8790    0.2120   40.6720 C.3   159  ILE159      0.0001
     63  N          1.9290    2.3910   38.2220 N.am  160  CYS160     -0.1956
     64  CA         1.0140    1.9590   37.1820 C.3   160  CYS160      0.1843
     65  C          0.0680    3.1180   36.8330 C.2   160  CYS160      0.2625
     66  O          0.4480    4.2980   36.9530 O.2   160  CYS160     -0.2714
     67  CB         0.2110    0.7330   37.6210 C.3   160  CYS160      0.0997
     68  SG        -0.5440   -0.1440   36.2220 S.3   160  CYS160     -0.0797
     69  N         -1.1520    2.7890   36.4030 N.am  161  ASN161     -0.1958
     70  CA        -2.1270    3.8110   36.0180 C.3   161  ASN161      0.1819
     71  C         -3.5470    3.4460   36.4360 C.2   161  ASN161      0.2621
     72  O         -4.2810    2.8140   35.6880 O.2   161  ASN161     -0.2715
     73  CB        -2.0710    4.0340   34.4950 C.3   161  ASN161      0.1195
     74  CG        -3.1620    4.9850   33.9840 C.2   161  ASN161      0.2630
     75  OD1       -3.2610    6.1500   34.3970 O.2   161  ASN161     -0.2716
     76  ND2       -3.9780    4.4860   33.0710 N.am  161  ASN161     -0.0877
     77  N         -3.9190    3.8420   37.6450 N.am  162  ALA162     -0.1977
     78  CA        -5.2530    3.5820   38.1770 C.3   162  ALA162      0.1597
     79  C         -6.0650    4.8710   38.0480 C.2   162  ALA162      0.2287
     80  O         -6.4440    5.4880   39.0460 O.2   162  ALA162     -0.2864
     81  CB        -5.1520    3.1540   39.6380 C.3   162  ALA162      0.0319
     82  N         -8.5760    3.6280   33.0070 N.3   166  ALA166     -0.1231
     83  CA        -8.4140    2.2400   33.4390 C.3   166  ALA166      0.1694
     84  C         -9.6700    1.7830   34.1950 C.2   166  ALA166      0.2592
     85  O         -9.6910    0.7260   34.8290 O.2   166  ALA166     -0.2718
     86  CB        -7.1820    2.1160   34.3360 C.3   166  ALA166      0.0304
     87  N        -10.7100    2.6070   34.1040 N.am  167  THR167     -0.1953
     88  CA       -11.9910    2.3850   34.7620 C.3   167  THR167      0.1897
     89  C        -13.0110    3.0570   33.8470 C.2   167  THR167      0.2313
     90  O        -12.6370    3.5840   32.8060 O.2   167  THR167     -0.2863
     91  CB       -12.0340    3.1160   36.1160 C.3   167  THR167      0.1794
     92  OG1      -12.0960    4.5260   35.8770 O.3   167  THR167     -0.2208
     93  CG2      -10.7870    2.8380   36.9300 C.3   167  THR167      0.0378
     94  N         -9.4970    5.4320   40.1650 N.3   172  THR172     -0.1218
     95  CA        -9.5000    4.9970   41.5510 C.3   172  THR172      0.1862
     96  C         -8.3680    5.6570   42.3320 C.2   172  THR172      0.2287
     97  O         -8.6150    6.5550   43.1160 O.2   172  THR172     -0.2866
     98  CB        -9.4070    3.4430   41.6740 C.3   172  THR172      0.1770
     99  OG1       -8.2680    2.9520   40.9460 O.3   172  THR172     -0.2211
    100  CG2      -10.6740    2.7980   41.1330 C.3   172  THR172      0.0375
    101  N          2.9150    2.0100   31.9810 N.3   199  GLN199     -0.1245
    102  CA         1.5960    2.5990   32.1930 C.3   199  GLN199      0.1566
    103  C          1.6840    3.9850   32.8610 C.2   199  GLN199      0.2260
    104  O          0.9630    4.9070   32.4900 O.2   199  GLN199     -0.2867
    105  CB         0.7210    1.6730   33.0460 C.3   199  GLN199      0.0367
    106  CG         0.2790    0.3850   32.3410 C.3   199  GLN199      0.0905
    107  CD         1.2350   -0.7730   32.5660 C.2   199  GLN199      0.2608
    108  OE1        2.4520   -0.5880   32.6040 O.2   199  GLN199     -0.2717
    109  NE2        0.6850   -1.9800   32.7060 N.am  199  GLN199     -0.0878
    110  N         -3.6680    1.5810   42.9570 N.3   238  GLY238     -0.1210
    111  CA        -4.9170    0.8850   42.7220 C.3   238  GLY238      0.1956
    112  C         -4.7360   -0.5830   43.0610 C.2   238  GLY238      0.2612
    113  O         -3.8580   -0.9310   43.8410 O.2   238  GLY238     -0.2717
    114  N         -5.5540   -1.4600   42.4880 N.am  239  ALA239     -0.1965
    115  CA        -5.4010   -2.8810   42.7680 C.3   239  ALA239      0.1728
    116  C         -6.0990   -3.7610   41.7460 C.2   239  ALA239      0.2616
    117  O         -7.1730   -3.4280   41.2380 O.2   239  ALA239     -0.2715
    118  CB        -5.9150   -3.1980   44.1610 C.3   239  ALA239      0.0334
    119  N         -5.4730   -4.8950   41.4540 N.am  240  ASP240     -0.1971
    120  CA        -6.0150   -5.8690   40.5120 C.3   240  ASP240      0.1709
    121  C         -6.8540   -6.9030   41.2390 C.2   240  ASP240      0.2293
    122  O         -7.8080   -7.4440   40.6840 O.2   240  ASP240     -0.2864
    123  CB        -4.8820   -6.5650   39.7850 C.3   240  ASP240      0.1436
    124  CG        -4.3220   -5.7260   38.6990 C.2   240  ASP240      0.3671
    125  OD1       -4.9110   -5.7310   37.6010 O.co2 240  ASP240     -0.2456
    126  OD2       -3.3030   -5.0460   38.9470 O.co2 240  ASP240     -0.2456
    127  N         -1.2560   -6.3480   42.7690 N.3   250  ASN250     -0.1225
    128  CA        -1.2610   -5.1390   41.9650 C.3   250  ASN250      0.1785
    129  C         -0.0700   -5.2000   41.0320 C.2   250  ASN250      0.2597
    130  O          0.7470   -6.1180   41.1250 O.2   250  ASN250     -0.2718
    131  CB        -1.1580   -3.9130   42.8800 C.3   250  ASN250      0.1169
    132  CG        -1.4610   -2.6190   42.1640 C.2   250  ASN250      0.2627
    133  OD1       -2.5260   -2.4550   41.5780 O.2   250  ASN250     -0.2716
    134  ND2       -0.5280   -1.6860   42.2160 N.am  250  ASN250     -0.0877
    135  N          0.0230   -4.2160   40.1420 N.am  251  LYS251     -0.1980
    136  CA         1.1090   -4.1330   39.1670 C.3   251  LYS251      0.1596
    137  C          2.4840   -4.3930   39.7830 C.2   251  LYS251      0.2287
    138  O          2.7740   -3.9210   40.8760 O.2   251  LYS251     -0.2864
    139  CB         1.0780   -2.7590   38.4870 C.3   251  LYS251      0.0298
    140  CG         2.2890   -2.4190   37.6410 C.3   251  LYS251      0.0038
    141  CD         2.6490   -3.5010   36.6180 C.3   251  LYS251      0.0206
    142  CE         1.6650   -3.5770   35.4700 C.3   251  LYS251      0.1093
    143  NZ         0.4110   -4.2380   35.8430 N.3   251  LYS251     -0.1314
    144  N          3.9430   -9.6790   35.7930 N.3   316  ALA316     -0.1231
    145  CA         3.2160   -8.4210   35.6210 C.3   316  ALA316      0.1694
    146  C          2.5580   -7.9370   36.9030 C.2   316  ALA316      0.2592
    147  O          1.9170   -6.8860   36.9080 O.2   316  ALA316     -0.2718
    148  CB         2.1750   -8.5620   34.5420 C.3   316  ALA316      0.0304
    149  N          2.7180   -8.7010   37.9860 N.am  317  PHE317     -0.1976
    150  CA         2.1290   -8.3460   39.2760 C.3   317  PHE317      0.1639
    151  C          2.9350   -8.9370   40.4280 C.2   317  PHE317      0.2290
    152  O          3.7990   -9.7950   40.2340 O.2   317  PHE317     -0.2864
    153  CB         0.6830   -8.8850   39.3860 C.3   317  PHE317      0.0560
    154  CG        -0.2300   -8.4500   38.2670 C.ar  317  PHE317     -0.0200
    155  CD1       -0.9340   -7.2530   38.3450 C.ar  317  PHE317     -0.0042
    156  CD2       -0.3460   -9.2160   37.1100 C.ar  317  PHE317     -0.0042
    157  CE1       -1.7350   -6.8220   37.2860 C.ar  317  PHE317     -0.0003
    158  CE2       -1.1470   -8.7890   36.0450 C.ar  317  PHE317     -0.0003
    159  CZ        -1.8390   -7.5960   36.1320 C.ar  317  PHE317     -0.0000
@<TRIPOS>BOND
     1     1     2    1
     2     3     4    2
     3     3     2    1
     4     2     5    1
     5     5     6    1
     6     6     7    1
     7     6     8    1
     8     9    10    1
     9    14    13    1
    10    14    15    1
    11    13    10    1
    12    49    50    1
    13    49    48    1
    14    15    16    1
    15    10    11    1
    16    44    45    1
    17    50    51    1
    18    39    38    2
    19    53    52    1
    20    12    11    2
    21    45    48    1
    22    45    46    1
    23    51    52    2
    24    11    20   am
    25    37    38    1
    26    37    36    1
    27    37    40    1
    28   101   102    1
    29    16    17    2
    30    41    40    1
    31    41    43    1
    32    52    54    1
    33    42    40    1
    34   102   103    1
    35   102   105    1
    36   106   107    1
    37   106   105    1
    38   104   103    2
    39   107   108    2
    40   107   109   am
    41    19    17    1
    42    90    89    2
    43    17    18    1
    44    82    83    1
    45    76    74   am
    46    20    21    1
    47    46    47    2
    48    83    84    1
    49    83    86    1
    50    89    88    1
    51    23    22    2
    52    74    75    2
    53    74    73    1
    54    87    84   am
    55    87    88    1
    56    84    85    2
    57    21    22    1
    58    32    31    2
    59    73    70    1
    60   148   145    1
    61    22    24   am
    62    31    30    1
    63    88    91    1
    64    27    26    2
    65   142   143    1
    66   142   141    1
    67   145   144    1
    68   145   146    1
    69    72    71    2
    70    24    25    1
    71    92    91    1
    72    26    25    1
    73    26    29   am
    74    70    69    1
    75    70    71    1
    76   158   159   ar
    77   158   156   ar
    78    91    93    1
    79   159   157   ar
    80    30    29    1
    81    30    33    1
    82    68    67    1
    83    25    28    1
    84    69    65   am
    85    29    35    1
    86    71    77   am
    87   141   140    1
    88    65    66    2
    89    65    64    1
    90    33    34    1
    91   146   147    2
    92   146   149   am
    93   156   154   ar
    94    64    67    1
    95    64    63    1
    96   157   155   ar
    97    35    34    1
    98   125   124   ar
    99   140   139    1
   100    77    78    1
   101   149   150    1
   102    79    78    1
   103    79    80    2
   104    78    81    1
   105    63    57   am
   106   154   155   ar
   107   154   153    1
   108   139   136    1
   109   124   126   ar
   110   124   123    1
   111   136   137    1
   112   136   135    1
   113   150   153    1
   114   150   151    1
   115    57    58    2
   116    57    56    1
   117   137   138    2
   118   123   120    1
   119    60    62    1
   120    60    59    1
   121   135   129   am
   122    94    95    1
   123   152   151    2
   124    56    59    1
   125    56    55    1
   126   120   121    1
   127   120   119    1
   128   122   121    2
   129    99    98    1
   130   129   130    2
   131   129   128    1
   132    59    61    1
   133   100    98    1
   134   117   116    2
   135   119   116   am
   136    95    98    1
   137    95    96    1
   138   133   132    2
   139   116   115    1
   140   128   127    1
   141   128   131    1
   142   132   134   am
   143   132   131    1
   144    96    97    2
   145   114   115    1
   146   114   112   am
   147   111   110    1
   148   111   112    1
   149   115   118    1
   150   112   113    2
