@<TRIPOS>MOLECULE
tmp/2yvlB00.pdb
 205 202 0 0 0
SMALL
GASTEIGER

@<TRIPOS>ATOM
      1  N         -2.6330   17.0250   52.2900 N.3    71  THR71      -0.1203
      2  CA        -2.6320   18.2270   51.4670 C.3    71  THR71       0.1994
      3  C         -1.3490   18.2320   50.6410 C.2    71  THR71       0.2618
      4  O         -0.5050   17.3470   50.7930 O.2    71  THR71      -0.2717
      5  CB        -2.6350   19.5190   52.3310 C.3    71  THR71       0.1784
      6  OG1       -1.4710   19.5450   53.1700 O.3    71  THR71      -0.2211
      7  CG2       -3.8750   19.6190   53.1930 C.3    71  THR71       0.0376
      8  N         -1.2050   19.2250   49.7650 N.am   72  GLN72      -0.1965
      9  CA         0.1000   19.5410   49.1970 C.3    72  GLN72       0.1733
     10  C          0.9760   20.0480   50.3350 C.2    72  GLN72       0.2616
     11  O          0.5610   20.9100   51.1080 O.2    72  GLN72      -0.2715
     12  CB        -0.0100   20.6070   48.1040 C.3    72  GLN72       0.0408
     13  CG         1.3280   20.9270   47.4170 C.3    72  GLN72       0.0908
     14  CD         1.9870   19.6940   46.8170 C.2    72  GLN72       0.2608
     15  OE1        1.5000   19.1340   45.8340 O.2    72  GLN72      -0.2717
     16  NE2        3.0910   19.2580   47.4160 N.am   72  GLN72      -0.0878
     17  N          2.1680   19.4820   50.4700 N.am   73  ILE73      -0.1963
     18  CA         3.0790   19.9400   51.5090 C.3    73  ILE73       0.1727
     19  C          4.0650   20.9740   50.9900 C.2    73  ILE73       0.2616
     20  O          4.2860   21.1000   49.7780 O.2    73  ILE73      -0.2715
     21  CB         3.8260   18.7770   52.2130 C.3    73  ILE73       0.0290
     22  CG1        4.6890   17.9710   51.2240 C.3    73  ILE73       0.0022
     23  CG2        2.8340   17.9040   52.9770 C.3    73  ILE73       0.0023
     24  CD1        5.7720   17.1480   51.9020 C.3    73  ILE73       0.0001
     25  N          4.6150   21.7440   51.9220 N.am   74  ILE74      -0.1977
     26  CA         5.7900   22.5470   51.6440 C.3    74  ILE74       0.1596
     27  C          7.0110   21.6680   51.9350 C.2    74  ILE74       0.2287
     28  O          7.1580   21.1340   53.0340 O.2    74  ILE74      -0.2864
     29  CB         5.7940   23.8760   52.4390 C.3    74  ILE74       0.0276
     30  CG1        4.5850   24.7320   52.0220 C.3    74  ILE74       0.0022
     31  CG2        7.1040   24.6320   52.2170 C.3    74  ILE74       0.0022
     32  CD1        4.5050   26.1040   52.6810 C.3    74  ILE74       0.0001
     33  N          1.0470   31.3520   61.1760 N.3    96  GLU96      -0.1231
     34  CA         0.9510   30.4790   60.0090 C.3    96  GLU96       0.1699
     35  C         -0.4800   30.0300   59.7010 C.2    96  GLU96       0.2592
     36  O         -1.2340   29.6490   60.5990 O.2    96  GLU96      -0.2718
     37  CB         1.8270   29.2260   60.1770 C.3    96  GLU96       0.0402
     38  CG         1.7680   28.2860   58.9580 C.3    96  GLU96       0.1161
     39  CD         2.0690   26.8220   59.2720 C.2    96  GLU96       0.3649
     40  OE1        2.5970   26.1340   58.3740 O.co2  96  GLU96      -0.2457
     41  OE2        1.7730   26.3500   60.3930 O.co2  96  GLU96      -0.2457
     42  N         -0.8390   30.0640   58.4190 N.am   97  PHE97      -0.1962
     43  CA        -2.0630   29.4190   57.9340 C.3    97  PHE97       0.1771
     44  C         -1.9780   29.2700   56.4150 C.2    97  PHE97       0.2620
     45  O         -1.3340   30.0870   55.7660 O.2    97  PHE97      -0.2715
     46  CB        -3.3160   30.1990   58.3750 C.3    97  PHE97       0.0574
     47  CG        -3.5020   31.5200   57.6830 C.ar   97  PHE97      -0.0200
     48  CD1       -2.8560   32.6660   58.1500 C.ar   97  PHE97      -0.0042
     49  CD2       -4.3660   31.6320   56.5970 C.ar   97  PHE97      -0.0042
     50  CE1       -3.0400   33.8960   57.5270 C.ar   97  PHE97      -0.0003
     51  CE2       -4.5540   32.8530   55.9630 C.ar   97  PHE97      -0.0003
     52  CZ        -3.8870   33.9920   56.4290 C.ar   97  PHE97      -0.0000
     53  N         -2.5590   28.2130   55.8460 N.am   98  GLY98      -0.1940
     54  CA        -3.1540   27.1000   56.5920 C.3    98  GLY98       0.2014
     55  C         -2.1070   26.0750   56.9920 C.2    98  GLY98       0.2640
     56  O         -1.1110   25.8910   56.2890 O.2    98  GLY98      -0.2714
     57  N         -2.3370   25.4250   58.1350 N.am   99  THR99      -0.1936
     58  CA        -1.4490   24.3980   58.6770 C.3    99  THR99       0.2028
     59  C         -1.2450   23.2400   57.7080 C.2    99  THR99       0.2643
     60  O         -0.1310   22.7280   57.5770 O.2    99  THR99      -0.2714
     61  CB        -1.9820   23.8450   60.0290 C.3    99  THR99       0.1808
     62  OG1       -2.4180   24.9300   60.8550 O.3    99  THR99      -0.2208
     63  CG2       -0.9060   23.0890   60.7720 C.3    99  THR99       0.0379
     64  N         -2.3150   22.8350   57.0270 N.am  100  GLY100     -0.1939
     65  CA        -2.2650   21.6710   56.1380 C.3   100  GLY100      0.2014
     66  C         -1.8290   20.4280   56.8870 C.2   100  GLY100      0.2640
     67  O         -2.3810   20.1090   57.9490 O.2   100  GLY100     -0.2714
     68  N         -0.8180   19.7460   56.3480 N.am  101  SER101     -0.1935
     69  CA        -0.2890   18.5150   56.9410 C.3   101  SER101      0.2055
     70  C          0.8100   18.7750   57.9750 C.2   101  SER101      0.2644
     71  O          1.2790   17.8460   58.6330 O.2   101  SER101     -0.2714
     72  CB         0.2230   17.5710   55.8490 C.3   101  SER101      0.2130
     73  OG        -0.8240   17.1990   54.9640 O.3   101  SER101     -0.2179
     74  N          1.2100   20.0380   58.1130 N.am  102  GLY102     -0.1939
     75  CA         2.1930   20.4470   59.1230 C.3   102  GLY102      0.2014
     76  C          3.6560   20.3430   58.7130 C.2   102  GLY102      0.2639
     77  O          4.5340   20.3610   59.5740 O.2   102  GLY102     -0.2714
     78  N          3.9260   20.2330   57.4110 N.am  103  ALA103     -0.1963
     79  CA         5.3120   20.0900   56.9160 C.3   103  ALA103      0.1728
     80  C          6.1450   21.3550   57.1080 C.2   103  ALA103      0.2616
     81  O          7.2770   21.2800   57.5780 O.2   103  ALA103     -0.2715
     82  CB         5.3330   19.6440   55.4590 C.3   103  ALA103      0.0334
     83  N          5.5890   22.5140   56.7490 N.am  104  LEU104     -0.1977
     84  CA         6.2440   23.7900   57.0550 C.3   104  LEU104      0.1596
     85  C          6.2830   24.0270   58.5630 C.2   104  LEU104      0.2287
     86  O          7.2980   24.5000   59.1080 O.2   104  LEU104     -0.2864
     87  CB         5.5430   24.9700   56.3570 C.3   104  LEU104      0.0297
     88  CG         5.9710   26.3920   56.7580 C.3   104  LEU104      0.0022
     89  CD1        7.4440   26.6870   56.4120 C.3   104  LEU104      0.0001
     90  CD2        5.0660   27.4210   56.1150 C.3   104  LEU104      0.0001
     91  N         -3.1750   28.1240   62.0370 N.3   118  PHE118     -0.1227
     92  CA        -4.6110   28.0730   61.8070 C.3   118  PHE118      0.1736
     93  C         -4.9380   27.1500   60.6460 C.2   118  PHE118      0.2595
     94  O         -4.3110   27.2300   59.5820 O.2   118  PHE118     -0.2718
     95  CB        -5.1600   29.4820   61.5450 C.3   118  PHE118      0.0547
     96  CG        -4.9760   30.4220   62.7010 C.ar  118  PHE118     -0.0202
     97  CD1       -3.7680   31.0920   62.8920 C.ar  118  PHE118     -0.0042
     98  CD2       -6.0120   30.6390   63.6070 C.ar  118  PHE118     -0.0042
     99  CE1       -3.5910   31.9550   63.9780 C.ar  118  PHE118     -0.0003
    100  CE2       -5.8460   31.5000   64.6940 C.ar  118  PHE118     -0.0003
    101  CZ        -4.6320   32.1670   64.8750 C.ar  118  PHE118     -0.0000
    102  N         -5.9180   26.2750   60.8630 N.am  119  GLU119     -0.1965
    103  CA        -6.3900   25.3580   59.8300 C.3   119  GLU119      0.1733
    104  C         -7.9040   25.1990   59.9070 C.2   119  GLU119      0.2616
    105  O         -8.4300   24.7260   60.9160 O.2   119  GLU119     -0.2715
    106  CB        -5.7020   23.9940   59.9590 C.3   119  GLU119      0.0429
    107  CG        -6.2590   22.9120   59.0310 C.3   119  GLU119      0.1163
    108  CD        -6.1770   23.2750   57.5590 C.2   119  GLU119      0.3649
    109  OE1       -5.0600   23.5350   57.0630 O.co2 119  GLU119     -0.2457
    110  OE2       -7.2320   23.2850   56.8910 O.co2 119  GLU119     -0.2457
    111  N         -8.5880   25.5860   58.8300 N.am  120  ALA120     -0.1963
    112  CA       -10.0480   25.5500   58.7670 C.3   120  ALA120      0.1728
    113  C        -10.6240   24.1310   58.7530 C.2   120  ALA120      0.2616
    114  O        -11.6830   23.8870   59.3290 O.2   120  ALA120     -0.2715
    115  CB       -10.5420   26.3370   57.5590 C.3   120  ALA120      0.0334
    116  N         -9.9290   23.2050   58.0970 N.am  121  VAL121     -0.1977
    117  CA       -10.4120   21.8330   57.9530 C.3   121  VAL121      0.1596
    118  C         -9.9630   20.9900   59.1400 C.2   121  VAL121      0.2287
    119  O         -8.7610   20.8090   59.3600 O.2   121  VAL121     -0.2864
    120  CB        -9.9500   21.1870   56.6220 C.3   121  VAL121      0.0276
    121  CG1      -10.4840   19.7610   56.4960 C.3   121  VAL121      0.0022
    122  CG2      -10.3920   22.0300   55.4310 C.3   121  VAL121      0.0022
    123  N         -7.4170   18.0410   58.6910 N.3   124  PHE124     -0.1241
    124  CA        -6.0330   18.4450   58.4430 C.3   124  PHE124      0.1605
    125  C         -5.4050   18.9800   59.7260 C.2   124  PHE124      0.2264
    126  O         -4.2370   18.7200   60.0170 O.2   124  PHE124     -0.2867
    127  CB        -5.9510   19.4740   57.3010 C.3   124  PHE124      0.0534
    128  CG        -6.5890   19.0140   56.0070 C.ar  124  PHE124     -0.0203
    129  CD1       -6.7940   17.6550   55.7440 C.ar  124  PHE124     -0.0042
    130  CD2       -6.9560   19.9450   55.0330 C.ar  124  PHE124     -0.0042
    131  CE1       -7.3810   17.2330   54.5520 C.ar  124  PHE124     -0.0003
    132  CE2       -7.5380   19.5330   53.8350 C.ar  124  PHE124     -0.0003
    133  CZ        -7.7550   18.1700   53.5950 C.ar  124  PHE124     -0.0000
    134  N         -9.8160   26.8330   62.9310 N.3   146  VAL146     -0.1231
    135  CA       -10.6900   27.9520   62.5990 C.3   146  VAL146      0.1692
    136  C        -10.1740   28.6260   61.3300 C.2   146  VAL146      0.2592
    137  O         -8.9760   28.5660   61.0280 O.2   146  VAL146     -0.2718
    138  CB       -10.8090   28.9640   63.8020 C.3   146  VAL146      0.0266
    139  CG1       -9.4630   29.5760   64.1540 C.3   146  VAL146      0.0020
    140  CG2      -11.8510   30.0450   63.5380 C.3   146  VAL146      0.0020
    141  N        -11.0900   29.2250   60.5740 N.am  147  ASP147     -0.1960
    142  CA       -10.7270   30.1120   59.4780 C.3   147  ASP147      0.1840
    143  C        -10.0480   31.3380   60.0900 C.2   147  ASP147      0.2622
    144  O        -10.5590   31.9230   61.0530 O.2   147  ASP147     -0.2715
    145  CB       -11.9810   30.5080   58.6800 C.3   147  ASP147      0.1450
    146  CG       -11.7090   31.5450   57.5890 C.2   147  ASP147      0.3671
    147  OD1      -12.6350   31.7950   56.7870 O.co2 147  ASP147     -0.2456
    148  OD2      -10.5990   32.1190   57.5180 O.co2 147  ASP147     -0.2456
    149  N         -8.8940   31.7060   59.5340 N.am  148  PHE148     -0.1974
    150  CA        -8.1160   32.8490   60.0080 C.3   148  PHE148      0.1639
    151  C         -8.9240   34.1480   60.0300 C.2   148  PHE148      0.2290
    152  O         -8.7470   34.9630   60.9300 O.2   148  PHE148     -0.2864
    153  CB        -6.8480   33.0330   59.1630 C.3   148  PHE148      0.0560
    154  CG        -6.0140   34.2190   59.5650 C.ar  148  PHE148     -0.0200
    155  CD1       -5.2630   34.1940   60.7420 C.ar  148  PHE148     -0.0042
    156  CD2       -5.9790   35.3620   58.7720 C.ar  148  PHE148     -0.0042
    157  CE1       -4.4840   35.2900   61.1190 C.ar  148  PHE148     -0.0003
    158  CE2       -5.1910   36.4640   59.1340 C.ar  148  PHE148     -0.0003
    159  CZ        -4.4520   36.4300   60.3130 C.ar  148  PHE148     -0.0000
    160  N          0.0650   30.1710   53.3930 N.3   164  ASP164     -0.1225
    161  CA        -0.0980   29.1450   52.3660 C.3   164  ASP164      0.1805
    162  C         -1.5800   28.8460   52.1310 C.2   164  ASP164      0.2598
    163  O         -2.1220   27.8840   52.6760 O.2   164  ASP164     -0.2718
    164  CB         0.6400   27.8550   52.7510 C.3   164  ASP164      0.1424
    165  CG         0.6640   26.8240   51.6150 C.2   164  ASP164      0.3668
    166  OD1        0.0870   27.0910   50.5350 O.co2 164  ASP164     -0.2456
    167  OD2        1.2610   25.7410   51.7960 O.co2 164  ASP164     -0.2456
    168  N         -2.2270   29.6900   51.3310 N.am  165  VAL165     -0.1966
    169  CA        -3.6100   29.4720   50.8930 C.3   165  VAL165      0.1727
    170  C         -3.7180   29.7650   49.3910 C.2   165  VAL165      0.2616
    171  O         -2.7760   30.2950   48.7910 O.2   165  VAL165     -0.2715
    172  CB        -4.6380   30.3230   51.7060 C.3   165  VAL165      0.0290
    173  CG1       -4.6040   29.9530   53.1930 C.3   165  VAL165      0.0023
    174  CG2       -4.3950   31.8080   51.5250 C.3   165  VAL165      0.0023
    175  N         -4.8590   29.4320   48.7900 N.am  166  ARG166     -0.1977
    176  CA        -5.0540   29.6250   47.3500 C.3   166  ARG166      0.1597
    177  C         -5.1350   31.0920   46.9520 C.2   166  ARG166      0.2287
    178  O         -4.6130   31.4870   45.9050 O.2   166  ARG166     -0.2864
    179  CB        -6.2970   28.8800   46.8470 C.3   166  ARG166      0.0334
    180  CG        -6.1060   27.3800   46.7080 C.3   166  ARG166      0.0492
    181  CD        -7.3410   26.7150   46.1000 C.3   166  ARG166      0.2205
    182  NE        -7.4690   26.9710   44.6640 N.pl3 166  ARG166     -0.0865
    183  CZ        -8.5890   26.8030   43.9610 C.cat 166  ARG166      0.5346
    184  NH1       -9.7040   26.3810   44.5550 N.pl3 166  ARG166      0.1354
    185  NH2       -8.5990   27.0670   42.6550 N.pl3 166  ARG166      0.1354
    186  N         -6.5690   38.0930   52.8400 N.3   171  TYR171     -0.1241
    187  CA        -6.1930   38.1420   54.2520 C.3   171  TYR171      0.1605
    188  C         -5.1310   39.1900   54.5690 C.2   171  TYR171      0.2264
    189  O         -4.7050   39.3110   55.7140 O.2   171  TYR171     -0.2867
    190  CB        -5.7330   36.7550   54.7110 C.3   171  TYR171      0.0534
    191  CG        -6.7410   35.6800   54.3740 C.ar  171  TYR171     -0.0201
    192  CD1       -6.5940   34.8810   53.2370 C.ar  171  TYR171     -0.0009
    193  CD2       -7.8740   35.4980   55.1670 C.ar  171  TYR171     -0.0009
    194  CE1       -7.5520   33.8970   52.9150 C.ar  171  TYR171      0.0417
    195  CE2       -8.8290   34.5360   54.8570 C.ar  171  TYR171      0.0417
    196  CZ        -8.6640   33.7370   53.7390 C.ar  171  TYR171      0.1957
    197  OH        -9.6220   32.7860   53.4640 O.3   171  TYR171     -0.2866
    198  N          3.4130   31.2490   49.9180 N.3   188  LEU188     -0.1245
    199  CA         3.6670   30.1690   48.9740 C.3   188  LEU188      0.1561
    200  C          2.5960   30.1520   47.8890 C.2   188  LEU188      0.2260
    201  O          1.4230   29.9980   48.1920 O.2   188  LEU188     -0.2867
    202  CB         3.7320   28.8140   49.6920 C.3   188  LEU188      0.0270
    203  CG         4.1170   27.6920   48.7190 C.3   188  LEU188      0.0019
    204  CD1        5.3510   26.9140   49.1820 C.3   188  LEU188      0.0001
    205  CD2        2.9180   26.7980   48.3760 C.3   188  LEU188      0.0001
@<TRIPOS>BOND
     1   185   183    1
     2   183   184    1
     3   183   182    2
     4   182   181    1
     5    15    14    2
     6   178   177    2
     7   181   180    1
     8   180   179    1
     9    14    16   am
    10    14    13    1
    11   179   176    1
    12   177   176    1
    13   176   175    1
    14    13    12    1
    15   200   201    2
    16   200   199    1
    17    12     9    1
    18   205   203    1
    19   203   204    1
    20   203   202    1
    21   175   170   am
    22   171   170    2
    23   199   202    1
    24   199   198    1
    25     9     8    1
    26     9    10    1
    27   170   169    1
    28     8     3   am
    29    20    19    2
    30    10    17   am
    31    10    11    2
    32    17    18    1
    33   166   165   ar
    34     3     4    2
    35     3     2    1
    36   169   168    1
    37   169   172    1
    38    19    18    1
    39    19    25   am
    40    22    24    1
    41    22    21    1
    42   168   162   am
    43     2     1    1
    44     2     5    1
    45    18    21    1
    46   174   172    1
    47   165   167   ar
    48   165   164    1
    49    26    25    1
    50    26    27    1
    51    26    29    1
    52   172   173    1
    53    27    28    2
    54    30    29    1
    55    30    32    1
    56   162   161    1
    57   162   163    2
    58    21    23    1
    59    31    29    1
    60     5     6    1
    61     5     7    1
    62   161   164    1
    63   161   160    1
    64   186   187    1
    65   194   192   ar
    66   194   196   ar
    67   192   191   ar
    68   197   196    1
    69   133   132   ar
    70   133   131   ar
    71   196   195   ar
    72   132   130   ar
    73   187   188    1
    74   187   190    1
    75   191   190    1
    76   191   193   ar
    77   131   129   ar
    78   188   189    2
    79   195   193   ar
    80    73    72    1
    81   130   128   ar
    82   122   120    1
    83    82    79    1
    84   129   128   ar
    85    45    44    2
    86    53    44   am
    87    53    54    1
    88    72    69    1
    89    51    52   ar
    90    51    49   ar
    91   128   127    1
    92    90    88    1
    93    65    66    1
    94    65    64    1
    95    56    55    2
    96    68    66   am
    97    68    69    1
    98    87    88    1
    99    87    84    1
   100    89    88    1
   101    44    43    1
   102    52    50   ar
   103   121   120    1
   104    54    55    1
   105    49    47   ar
   106   120   117    1
   107    83    84    1
   108    83    80   am
   109   147   146   ar
   110    66    67    2
   111   110   108   ar
   112    79    80    1
   113    79    78    1
   114    69    70    1
   115    55    57   am
   116    64    59   am
   117    84    85    1
   118   109   108   ar
   119    80    81    2
   120   127   124    1
   121    78    76   am
   122   148   146   ar
   123    50    48   ar
   124   115   112    1
   125   108   107    1
   126    60    59    2
   127   146   145    1
   128    47    48   ar
   129    47    46    1
   130    59    58    1
   131    43    46    1
   132    43    42    1
   133   117   116    1
   134   117   118    1
   135    70    74   am
   136    70    71    2
   137   116   113   am
   138    74    75    1
   139    57    58    1
   140    40    39   ar
   141    42    35   am
   142   124   123    1
   143   124   125    1
   144    85    86    2
   145    58    61    1
   146   145   142    1
   147    76    75    1
   148    76    77    2
   149   113   112    1
   150   113   114    2
   151   112   111    1
   152   156   158   ar
   153   156   154   ar
   154   111   104   am
   155    38    39    1
   156    38    37    1
   157   107   106    1
   158   158   159   ar
   159   118   119    2
   160   153   154    1
   161   153   150    1
   162    39    41   ar
   163   142   143    1
   164   142   141    1
   165   149   150    1
   166   149   143   am
   167   154   155   ar
   168    94    93    2
   169    35    34    1
   170    35    36    2
   171   125   126    2
   172   103   104    1
   173   103   106    1
   174   103   102    1
   175   104   105    2
   176   150   151    1
   177    34    37    1
   178    34    33    1
   179    61    63    1
   180    61    62    1
   181   151   152    2
   182   143   144    2
   183   159   157   ar
   184   141   136   am
   185    93   102   am
   186    93    92    1
   187   155   157   ar
   188   137   136    2
   189   136   135    1
   190    95    92    1
   191    95    96    1
   192    92    91    1
   193   135   134    1
   194   135   138    1
   195    96    97   ar
   196    96    98   ar
   197    97    99   ar
   198   140   138    1
   199    98   100   ar
   200   138   139    1
   201    99   101   ar
   202   100   101   ar
