@<TRIPOS>MOLECULE
tmp/2yvoA00.pdb
 108 102 0 0 0
SMALL
GASTEIGER

@<TRIPOS>ATOM
      1  N         13.9160   44.0080   65.6110 N.3    16  PRO16      -0.2102
      2  CA        13.1720   42.7770   65.3100 C.3    16  PRO16       0.1504
      3  C         13.0910   41.7460   66.4400 C.2    16  PRO16       0.2575
      4  O         12.3690   40.7530   66.3320 O.2    16  PRO16      -0.2718
      5  CB        13.9010   42.2340   64.0840 C.3    16  PRO16       0.0282
      6  CG        15.3220   42.6150   64.3730 C.3    16  PRO16       0.0208
      7  CD        15.1900   44.0440   64.8700 C.3    16  PRO16       0.0893
      8  N         13.8380   41.9870   67.5130 N.am   17  VAL17      -0.1980
      9  CA        13.8570   41.1030   68.6770 C.3    17  VAL17       0.1595
     10  C         13.7750   42.0010   69.9100 C.2    17  VAL17       0.2287
     11  O         14.4640   43.0170   69.9760 O.2    17  VAL17      -0.2864
     12  CB        15.1760   40.2960   68.7440 C.3    17  VAL17       0.0276
     13  CG1       15.2210   39.4530   70.0210 C.3    17  VAL17       0.0022
     14  CG2       15.2910   39.4020   67.5120 C.3    17  VAL17       0.0022
     15  N         20.1980   25.6630   56.2800 N.3    60  GLN60      -0.1245
     16  CA        19.8720   27.0720   56.4510 C.3    60  GLN60       0.1566
     17  C         20.9930   27.9930   56.9090 C.2    60  GLN60       0.2260
     18  O         21.7380   27.6810   57.8410 O.2    60  GLN60      -0.2867
     19  CB        18.6950   27.1560   57.4420 C.3    60  GLN60       0.0367
     20  CG        18.2590   28.5600   57.7940 C.3    60  GLN60       0.0905
     21  CD        16.9110   28.5720   58.5000 C.2    60  GLN60       0.2608
     22  OE1       16.5030   27.5660   59.1130 O.2    60  GLN60      -0.2717
     23  NE2       16.2180   29.6930   58.4200 N.am   60  GLN60      -0.0878
     24  N         22.6750   30.6920   58.9820 N.3    62  ARG62      -0.1245
     25  CA        22.4390   31.2870   60.3110 C.3    62  ARG62       0.1563
     26  C         23.5070   32.3740   60.4590 C.2    62  ARG62       0.2260
     27  O         24.6550   32.1190   60.8240 O.2    62  ARG62      -0.2867
     28  CB        22.5460   30.2150   61.4070 C.3    62  ARG62       0.0307
     29  CG        21.3890   29.2050   61.3680 C.3    62  ARG62       0.0489
     30  CD        20.0460   29.9210   61.3580 C.3    62  ARG62       0.2205
     31  NE        18.9220   29.0060   61.5690 N.pl3  62  ARG62      -0.0865
     32  CZ        17.6810   29.4120   61.8280 C.cat  62  ARG62       0.5346
     33  NH1       17.3990   30.7120   61.8900 N.pl3  62  ARG62       0.1354
     34  NH2       16.7330   28.5160   62.0770 N.pl3  62  ARG62       0.1354
     35  N         24.5530   34.7790   62.5390 N.3    64  PRO64      -0.2116
     36  CA        25.4750   34.9490   63.6700 C.3    64  PRO64       0.1372
     37  C         26.6800   34.0040   63.6340 C.2    64  PRO64       0.2244
     38  O         27.7630   34.3410   64.1380 O.2    64  PRO64      -0.2868
     39  CB        24.5850   34.7010   64.8850 C.3    64  PRO64       0.0268
     40  CG        23.2260   35.1640   64.4140 C.3    64  PRO64       0.0207
     41  CD        23.1660   34.5970   63.0030 C.3    64  PRO64       0.0892
     42  N         11.6880   24.6300   61.6320 N.3    74  ALA74      -0.1231
     43  CA        11.3130   25.2020   62.9180 C.3    74  ALA74       0.1694
     44  C         11.0410   26.6800   62.7890 C.2    74  ALA74       0.2593
     45  O         11.4810   27.3210   61.8330 O.2    74  ALA74      -0.2718
     46  CB        12.4560   24.9940   63.9170 C.3    74  ALA74       0.0304
     47  N         10.3400   27.2310   63.7750 N.am   75  GLY75      -0.1942
     48  CA        10.0710   28.6550   63.7260 C.3    75  GLY75       0.2014
     49  C          9.3670   29.1670   64.9540 C.2    75  GLY75       0.2638
     50  O          8.8900   28.4000   65.7950 O.2    75  GLY75      -0.2714
     51  N          9.2780   30.4840   65.0380 N.am   76  LYS76      -0.1977
     52  CA         8.6400   31.1350   66.1760 C.3    76  LYS76       0.1596
     53  C          7.1450   30.8560   66.2420 C.2    76  LYS76       0.2287
     54  O          6.4790   30.7970   65.2230 O.2    76  LYS76      -0.2864
     55  CB         8.8490   32.6490   66.0840 C.3    76  LYS76       0.0298
     56  CG         8.3540   33.4150   67.3050 C.3    76  LYS76       0.0038
     57  CD         8.6410   34.9120   67.1950 C.3    76  LYS76       0.0206
     58  CE         7.9830   35.6680   68.3500 C.3    76  LYS76       0.1093
     59  NZ         6.4940   35.4870   68.3620 N.3    76  LYS76      -0.1314
     60  N          5.2610   26.1300   60.1620 N.3    90  GLU90      -0.1245
     61  CA         6.6420   26.2850   59.7270 C.3    90  GLU90       0.1567
     62  C          7.0750   25.1340   58.8130 C.2    90  GLU90       0.2260
     63  O          7.9130   25.3160   57.9280 O.2    90  GLU90      -0.2867
     64  CB         7.5750   26.4020   60.9480 C.3    90  GLU90       0.0388
     65  CG         7.3820   27.7190   61.7270 C.3    90  GLU90       0.1160
     66  CD         8.0330   28.9260   61.0540 C.2    90  GLU90       0.3649
     67  OE1        7.7160   30.0730   61.4480 O.co2  90  GLU90      -0.2457
     68  OE2        8.8760   28.7390   60.1490 O.co2  90  GLU90      -0.2457
     69  N          8.6290   26.2880   55.3360 N.3    94  GLU94      -0.1245
     70  CA        10.0200   26.0030   55.0260 C.3    94  GLU94       0.1567
     71  C         10.3290   24.8480   54.0860 C.2    94  GLU94       0.2260
     72  O         11.2900   24.9240   53.3280 O.2    94  GLU94      -0.2867
     73  CB        10.8000   25.8530   56.3460 C.3    94  GLU94       0.0388
     74  CG        10.6470   27.0920   57.2310 C.3    94  GLU94       0.1160
     75  CD        11.5120   27.0820   58.4920 C.2    94  GLU94       0.3649
     76  OE1       11.5710   28.1430   59.1640 O.co2  94  GLU94      -0.2457
     77  OE2       12.1220   26.0390   58.8100 O.co2  94  GLU94      -0.2457
     78  N         10.3050   33.6430   54.2750 N.3   136  GLU136     -0.1231
     79  CA        10.2870   35.0730   54.5360 C.3   136  GLU136      0.1699
     80  C         11.5850   35.7100   54.1070 C.2   136  GLU136      0.2592
     81  O         12.5870   35.0240   53.8700 O.2   136  GLU136     -0.2718
     82  CB        10.1000   35.3560   56.0200 C.3   136  GLU136      0.0402
     83  CG         8.7270   35.0190   56.5310 C.3   136  GLU136      0.1161
     84  CD         8.7790   34.1910   57.7880 C.2   136  GLU136      0.3649
     85  OE1        9.2780   34.6960   58.8220 O.co2 136  GLU136     -0.2457
     86  OE2        8.3190   33.0340   57.7340 O.co2 136  GLU136     -0.2457
     87  N         11.5540   37.0330   53.9810 N.am  137  GLU137     -0.1966
     88  CA        12.7630   37.7520   53.6630 C.3   137  GLU137      0.1733
     89  C         13.4700   37.4540   54.9650 C.2   137  GLU137      0.2617
     90  O         12.8580   37.5060   56.0380 O.2   137  GLU137     -0.2715
     91  CB        12.4900   39.2540   53.5380 C.3   137  GLU137      0.0429
     92  CG        11.9630   39.6740   52.1770 C.3   137  GLU137      0.1163
     93  CD        11.0400   38.6370   51.5570 C.2   137  GLU137      0.3649
     94  OE1        9.9830   38.3330   52.1560 O.co2 137  GLU137     -0.2457
     95  OE2       11.3780   38.1240   50.4680 O.co2 137  GLU137     -0.2457
     96  N         14.7360   37.1100   54.8840 N.am  138  GLY138     -0.1940
     97  CA        15.4530   36.7940   56.0920 C.3   138  GLY138      0.2014
     98  C         15.7370   35.3130   56.1460 C.2   138  GLY138      0.2638
     99  O         16.6780   34.8940   56.8120 O.2   138  GLY138     -0.2714
    100  N         14.9140   34.5070   55.4720 N.am  139  GLU139     -0.1977
    101  CA        15.1490   33.0680   55.4760 C.3   139  GLU139      0.1602
    102  C         15.8800   32.6180   54.2280 C.2   139  GLU139      0.2287
    103  O         15.3650   32.7460   53.1150 O.2   139  GLU139     -0.2864
    104  CB        13.8370   32.2830   55.5880 C.3   139  GLU139      0.0415
    105  CG        13.1770   32.4220   56.9360 C.3   139  GLU139      0.1163
    106  CD        12.0030   31.4730   57.1310 C.2   139  GLU139      0.3649
    107  OE1       11.1490   31.3950   56.2260 O.co2 139  GLU139     -0.2457
    108  OE2       11.9230   30.8210   58.1930 O.co2 139  GLU139     -0.2457
@<TRIPOS>BOND
     1    95    93   ar
     2    93    94   ar
     3    93    92    1
     4    92    91    1
     5   103   102    2
     6    72    71    2
     7    91    88    1
     8    88    87    1
     9    88    89    1
    10    81    80    2
    11    87    80   am
    12    71    70    1
    13    80    79    1
    14   102   101    1
    15    78    79    1
    16    79    82    1
    17    96    89   am
    18    96    97    1
    19    89    90    2
    20    70    69    1
    21    70    73    1
    22   100   101    1
    23   100    98   am
    24   101   104    1
    25   104   105    1
    26    82    83    1
    27    97    98    1
    28    98    99    2
    29   107   106   ar
    30    15    16    1
    31    73    74    1
    32    16    17    1
    33    16    19    1
    34    83    84    1
    35    17    18    2
    36   105   106    1
    37   106   108   ar
    38    74    75    1
    39    19    20    1
    40    86    84   ar
    41    84    85   ar
    42    20    21    1
    43    63    62    2
    44    23    21   am
    45    75    77   ar
    46    75    76   ar
    47    21    22    2
    48    62    61    1
    49    24    25    1
    50    61    60    1
    51    61    64    1
    52    68    66   ar
    53    25    26    1
    54    25    28    1
    55    26    27    2
    56    64    65    1
    57    66    67   ar
    58    66    65    1
    59    30    29    1
    60    30    31    1
    61    29    28    1
    62    31    32    2
    63    42    43    1
    64    32    33    1
    65    32    34    1
    66    45    44    2
    67    35    41    1
    68    35    36    1
    69    44    43    1
    70    44    47   am
    71    43    46    1
    72    41    40    1
    73    37    36    1
    74    37    38    2
    75    36    39    1
    76    48    47    1
    77    48    49    1
    78     5     6    1
    79     5     2    1
    80     6     7    1
    81    40    39    1
    82     7     1    1
    83    49    51   am
    84    49    50    2
    85    51    52    1
    86    54    53    2
    87     2     1    1
    88     2     3    1
    89    55    52    1
    90    55    56    1
    91    52    53    1
    92     4     3    2
    93     3     8   am
    94    57    56    1
    95    57    58    1
    96    14    12    1
    97     8     9    1
    98    58    59    1
    99     9    12    1
   100     9    10    1
   101    12    13    1
   102    10    11    2
