@<TRIPOS>MOLECULE
tmp/2yvpA00.pdb
 165 156 0 0 0
SMALL
GASTEIGER

@<TRIPOS>ATOM
      1  N         13.7870   43.7790   65.8150 N.3    16  PRO16      -0.2102
      2  CA        13.0720   42.5360   65.5200 C.3    16  PRO16       0.1504
      3  C         13.0650   41.5170   66.6570 C.2    16  PRO16       0.2575
      4  O         12.3970   40.4920   66.5700 O.2    16  PRO16      -0.2718
      5  CB        13.7910   42.0180   64.2760 C.3    16  PRO16       0.0282
      6  CG        15.2090   42.4510   64.5250 C.3    16  PRO16       0.0208
      7  CD        15.0390   43.8640   65.0350 C.3    16  PRO16       0.0893
      8  N         13.8130   41.8010   67.7170 N.am   17  VAL17      -0.1980
      9  CA        13.8680   40.9250   68.8810 C.3    17  VAL17       0.1595
     10  C         13.7350   41.8230   70.1080 C.2    17  VAL17       0.2287
     11  O         14.3350   42.8980   70.1460 O.2    17  VAL17      -0.2864
     12  CB        15.2290   40.2020   68.9740 C.3    17  VAL17       0.0276
     13  CG1       15.2880   39.3360   70.2330 C.3    17  VAL17       0.0022
     14  CG2       15.4480   39.3650   67.7230 C.3    17  VAL17       0.0022
     15  N         16.5070   38.1290   76.8900 N.3    37  ARG37      -0.1245
     16  CA        15.3680   38.1720   75.9790 C.3    37  ARG37       0.1563
     17  C         14.2450   37.6720   76.8980 C.2    37  ARG37       0.2260
     18  O         14.2220   36.5050   77.3260 O.2    37  ARG37      -0.2867
     19  CB        15.6160   37.2130   74.8040 C.3    37  ARG37       0.0307
     20  CG        14.7170   37.4400   73.6310 C.3    37  ARG37       0.0489
     21  CD        13.3920   36.7490   73.7880 C.3    37  ARG37       0.2205
     22  NE        12.5480   37.0400   72.6270 N.pl3  37  ARG37      -0.0865
     23  CZ        11.5310   37.9010   72.6330 C.cat  37  ARG37       0.5346
     24  NH1       11.2020   38.5650   73.7460 N.pl3  37  ARG37       0.1354
     25  NH2       10.8590   38.1250   71.5110 N.pl3  37  ARG37       0.1354
     26  N          7.9260   33.5310   75.4690 N.3    41  VAL41      -0.1231
     27  CA         8.1800   33.3990   74.0400 C.3    41  VAL41       0.1692
     28  C          8.5540   31.9340   73.7960 C.2    41  VAL41       0.2592
     29  O          9.1270   31.2670   74.6650 O.2    41  VAL41      -0.2718
     30  CB         9.2860   34.3840   73.5550 C.3    41  VAL41       0.0266
     31  CG1       10.5710   34.1930   74.3750 C.3    41  VAL41       0.0020
     32  CG2        9.5240   34.2180   72.0650 C.3    41  VAL41       0.0020
     33  N          8.1990   31.4210   72.6190 N.am   42  ALA42      -0.1966
     34  CA         8.4520   30.0110   72.3190 C.3    42  ALA42       0.1728
     35  C          8.6480   29.7870   70.8390 C.2    42  ALA42       0.2616
     36  O          8.3000   30.6420   70.0280 O.2    42  ALA42      -0.2715
     37  CB         7.2650   29.1540   72.7980 C.3    42  ALA42       0.0334
     38  N          9.2090   28.6310   70.5040 N.am   43  ALA43      -0.1977
     39  CA         9.4190   28.2170   69.1160 C.3    43  ALA43       0.1597
     40  C          9.1660   26.7090   69.0780 C.2    43  ALA43       0.2287
     41  O          9.3110   26.0380   70.0940 O.2    43  ALA43      -0.2864
     42  CB        10.8620   28.5130   68.6690 C.3    43  ALA43       0.0319
     43  N         10.0270   23.0070   66.9700 N.3    45  PHE45      -0.1241
     44  CA        11.0130   22.3270   66.1300 C.3    45  PHE45       0.1605
     45  C         10.3540   21.0090   65.7460 C.2    45  PHE45       0.2264
     46  O          9.8180   20.3180   66.6090 O.2    45  PHE45      -0.2867
     47  CB        12.2890   22.0700   66.9540 C.3    45  PHE45       0.0534
     48  CG        13.1740   23.2740   67.0450 C.ar   45  PHE45      -0.0203
     49  CD1       12.8060   24.3850   67.8110 C.ar   45  PHE45      -0.0042
     50  CD2       14.3410   23.3350   66.2900 C.ar   45  PHE45      -0.0042
     51  CE1       13.6000   25.5490   67.8010 C.ar   45  PHE45      -0.0003
     52  CE2       15.1300   24.4860   66.2790 C.ar   45  PHE45      -0.0003
     53  CZ        14.7490   25.5920   67.0370 C.ar   45  PHE45      -0.0000
     54  N         20.1810   25.5400   56.4080 N.3    60  GLN60      -0.1245
     55  CA        19.8240   26.9390   56.5670 C.3    60  GLN60       0.1566
     56  C         20.9500   27.8600   56.9940 C.2    60  GLN60       0.2260
     57  O         21.7250   27.5230   57.9030 O.2    60  GLN60      -0.2867
     58  CB        18.6960   27.0120   57.6040 C.3    60  GLN60       0.0367
     59  CG        18.2720   28.4170   57.8960 C.3    60  GLN60       0.0905
     60  CD        16.9800   28.4930   58.6840 C.2    60  GLN60       0.2608
     61  OE1       16.6090   27.5520   59.4100 O.2    60  GLN60      -0.2717
     62  NE2       16.3090   29.6090   58.5720 N.am   60  GLN60      -0.0878
     63  N         22.6440   30.5410   59.0400 N.3    62  ARG62      -0.1245
     64  CA        22.4210   31.1170   60.3800 C.3    62  ARG62       0.1563
     65  C         23.4840   32.1990   60.5440 C.2    62  ARG62       0.2260
     66  O         24.6260   31.9410   60.9080 O.2    62  ARG62      -0.2867
     67  CB        22.5430   30.0270   61.4360 C.3    62  ARG62       0.0307
     68  CG        21.3940   29.0190   61.3630 C.3    62  ARG62       0.0489
     69  CD        20.0710   29.7040   61.5580 C.3    62  ARG62       0.2205
     70  NE        19.0180   28.7490   61.8570 N.pl3  62  ARG62      -0.0865
     71  CZ        17.7830   29.1110   62.1620 C.cat  62  ARG62       0.5346
     72  NH1       17.4610   30.4230   62.1780 N.pl3  62  ARG62       0.1354
     73  NH2       16.8990   28.1740   62.4990 N.pl3  62  ARG62       0.1354
     74  N         24.5070   34.6110   62.6340 N.3    64  PRO64      -0.2116
     75  CA        25.4280   34.7970   63.7710 C.3    64  PRO64       0.1372
     76  C         26.6260   33.8480   63.7340 C.2    64  PRO64       0.2244
     77  O         27.7070   34.1830   64.2500 O.2    64  PRO64      -0.2868
     78  CB        24.5510   34.5460   64.9930 C.3    64  PRO64       0.0268
     79  CG        23.1670   34.9170   64.5300 C.3    64  PRO64       0.0207
     80  CD        23.1210   34.3900   63.0880 C.3    64  PRO64       0.0892
     81  N         11.7470   24.6640   61.7560 N.3    74  ALA74      -0.1231
     82  CA        11.3960   25.2510   63.0540 C.3    74  ALA74       0.1694
     83  C         11.0700   26.7250   62.9320 C.2    74  ALA74       0.2593
     84  O         11.5030   27.4130   62.0010 O.2    74  ALA74      -0.2718
     85  CB        12.6030   25.0890   64.0300 C.3    74  ALA74       0.0304
     86  N         10.3260   27.2200   63.9060 N.am   75  GLY75      -0.1942
     87  CA        10.0180   28.6340   63.8890 C.3    75  GLY75       0.2014
     88  C          9.3120   29.0870   65.1310 C.2    75  GLY75       0.2638
     89  O          8.8710   28.2820   65.9500 O.2    75  GLY75      -0.2714
     90  N          9.1920   30.3990   65.2410 N.am   76  LYS76      -0.1977
     91  CA         8.5780   31.0160   66.4010 C.3    76  LYS76       0.1596
     92  C          7.0970   30.7040   66.4870 C.2    76  LYS76       0.2287
     93  O          6.4310   30.6410   65.4740 O.2    76  LYS76      -0.2864
     94  CB         8.7740   32.5380   66.3260 C.3    76  LYS76       0.0298
     95  CG         8.3860   33.2650   67.6130 C.3    76  LYS76       0.0038
     96  CD         8.5980   34.7770   67.5360 C.3    76  LYS76       0.0206
     97  CE         7.9130   35.4650   68.7340 C.3    76  LYS76       0.1093
     98  NZ         6.4130   35.2650   68.7310 N.3    76  LYS76      -0.1314
     99  N          5.2560   26.0340   60.2990 N.3    90  GLU90      -0.1245
    100  CA         6.6390   26.2040   59.8710 C.3    90  GLU90       0.1567
    101  C          7.0880   25.0630   58.9450 C.2    90  GLU90       0.2260
    102  O          7.8900   25.2620   58.0410 O.2    90  GLU90      -0.2867
    103  CB         7.5540   26.3260   61.0990 C.3    90  GLU90       0.0388
    104  CG         7.3190   27.6440   61.8600 C.3    90  GLU90       0.1160
    105  CD         8.0000   28.8480   61.2070 C.2    90  GLU90       0.3649
    106  OE1        7.6000   29.9910   61.4990 O.co2  90  GLU90      -0.2457
    107  OE2        8.9270   28.6430   60.3980 O.co2  90  GLU90      -0.2457
    108  N          8.6190   26.2250   55.5020 N.3    94  GLU94      -0.1245
    109  CA        10.0140   25.9690   55.1850 C.3    94  GLU94       0.1567
    110  C         10.3210   24.8120   54.2540 C.2    94  GLU94       0.2260
    111  O         11.3000   24.8770   53.4990 O.2    94  GLU94      -0.2867
    112  CB        10.8100   25.8280   56.4950 C.3    94  GLU94       0.0388
    113  CG        10.6080   27.0260   57.4020 C.3    94  GLU94       0.1160
    114  CD        11.5040   27.0730   58.6370 C.2    94  GLU94       0.3649
    115  OE1       12.1480   26.0520   58.9710 O.co2  94  GLU94      -0.2457
    116  OE2       11.5390   28.1510   59.2850 O.co2  94  GLU94      -0.2457
    117  N         13.0080   31.9030   76.2230 N.3   117  VAL117     -0.1245
    118  CA        12.3690   31.0450   75.2300 C.3   117  VAL117      0.1561
    119  C         12.3340   29.5610   75.5560 C.2   117  VAL117      0.2260
    120  O         13.3020   29.0020   76.1100 O.2   117  VAL117     -0.2867
    121  CB        12.9970   31.2640   73.8230 C.3   117  VAL117      0.0252
    122  CG1       14.3050   30.4760   73.6720 C.3   117  VAL117      0.0019
    123  CG2       11.9840   30.8600   72.7270 C.3   117  VAL117      0.0019
    124  N         11.6620   25.8710   73.7350 N.3   119  PHE119     -0.1241
    125  CA        11.5640   25.2430   72.4240 C.3   119  PHE119      0.1605
    126  C         10.7270   23.9820   72.5740 C.2   119  PHE119      0.2264
    127  O         10.9190   23.2030   73.5150 O.2   119  PHE119     -0.2867
    128  CB        12.9440   24.8790   71.8920 C.3   119  PHE119      0.0534
    129  CG        13.6970   26.0360   71.3120 C.ar  119  PHE119     -0.0203
    130  CD1       13.1430   27.3160   71.2380 C.ar  119  PHE119     -0.0042
    131  CD2       14.9650   25.8300   70.7890 C.ar  119  PHE119     -0.0042
    132  CE1       13.8670   28.3690   70.6330 C.ar  119  PHE119     -0.0003
    133  CE2       15.6810   26.8690   70.1920 C.ar  119  PHE119     -0.0003
    134  CZ        15.1340   28.1330   70.1100 C.ar  119  PHE119     -0.0000
    135  N         10.2770   33.4230   54.5140 N.3   136  GLU136     -0.1231
    136  CA        10.2390   34.8210   54.8920 C.3   136  GLU136      0.1699
    137  C         11.4620   35.5290   54.3440 C.2   136  GLU136      0.2592
    138  O         12.4520   34.8860   53.9590 O.2   136  GLU136     -0.2718
    139  CB        10.2490   34.9620   56.4120 C.3   136  GLU136      0.0402
    140  CG         8.8880   34.8290   57.0640 C.3   136  GLU136      0.1161
    141  CD         8.9250   35.2200   58.5280 C.2   136  GLU136      0.3649
    142  OE1        9.3140   34.3750   59.3660 O.co2 136  GLU136     -0.2457
    143  OE2        8.5790   36.3830   58.8390 O.co2 136  GLU136     -0.2457
    144  N         11.3840   36.8560   54.2780 N.am  137  GLU137     -0.1966
    145  CA        12.5360   37.6250   53.8580 C.3   137  GLU137      0.1733
    146  C         13.3530   37.4210   55.1200 C.2   137  GLU137      0.2617
    147  O         12.8610   37.6300   56.2340 O.2   137  GLU137     -0.2715
    148  CB        12.1840   39.1090   53.6830 C.3   137  GLU137      0.0429
    149  CG        11.6960   39.4630   52.2840 C.3   137  GLU137      0.1163
    150  CD        10.5790   38.5500   51.7950 C.2   137  GLU137      0.3649
    151  OE1       10.5520   38.2300   50.5830 O.co2 137  GLU137     -0.2457
    152  OE2        9.7190   38.1570   52.6180 O.co2 137  GLU137     -0.2457
    153  N         14.5800   36.9810   54.9660 N.am  138  GLY138     -0.1940
    154  CA        15.3910   36.7360   56.1420 C.3   138  GLY138      0.2014
    155  C         15.6480   35.2540   56.3140 C.2   138  GLY138      0.2638
    156  O         16.4930   34.8550   57.1120 O.2   138  GLY138     -0.2714
    157  N         14.8930   34.4250   55.5980 N.am  139  GLU139     -0.1977
    158  CA        15.0980   32.9790   55.6690 C.3   139  GLU139      0.1602
    159  C         15.8170   32.4990   54.4180 C.2   139  GLU139      0.2287
    160  O         15.2840   32.5750   53.3000 O.2   139  GLU139     -0.2864
    161  CB        13.7690   32.2130   55.8040 C.3   139  GLU139      0.0415
    162  CG        13.1070   32.3620   57.1420 C.3   139  GLU139      0.1163
    163  CD        11.8910   31.4670   57.3040 C.2   139  GLU139      0.3649
    164  OE1       11.0100   31.4930   56.4180 O.co2 139  GLU139     -0.2457
    165  OE2       11.8120   30.7480   58.3230 O.co2 139  GLU139     -0.2457
@<TRIPOS>BOND
     1   151   150   ar
     2   150   149    1
     3   150   152   ar
     4   149   148    1
     5   160   159    2
     6   111   110    2
     7   148   145    1
     8   145   144    1
     9   145   146    1
    10   138   137    2
    11   110   109    1
    12   144   137   am
    13   137   136    1
    14   159   158    1
    15   135   136    1
    16   136   139    1
    17   153   146   am
    18   153   154    1
    19   146   147    2
    20   109   108    1
    21   109   112    1
    22   157   158    1
    23   157   155   am
    24   158   161    1
    25   161   162    1
    26   154   155    1
    27   155   156    2
    28    54    55    1
    29   139   140    1
    30   164   163   ar
    31   112   113    1
    32    55    56    1
    33    55    58    1
    34    56    57    2
    35   140   141    1
    36   162   163    1
    37   163   165   ar
    38   113   114    1
    39    58    59    1
    40    59    60    1
    41   102   101    2
    42   141   143   ar
    43   141   142   ar
    44    62    60   am
    45   114   115   ar
    46   114   116   ar
    47    60    61    2
    48   101   100    1
    49    63    64    1
    50   100    99    1
    51   100   103    1
    52    64    65    1
    53    64    67    1
    54   107   105   ar
    55    65    66    2
    56   103   104    1
    57   105   106   ar
    58   105   104    1
    59    68    67    1
    60    68    69    1
    61    69    70    1
    62    81    82    1
    63    70    71    2
    64    84    83    2
    65    71    72    1
    66    71    73    1
    67    74    80    1
    68    74    75    1
    69    83    82    1
    70    83    86   am
    71    82    85    1
    72    80    79    1
    73    76    75    1
    74    76    77    2
    75    75    78    1
    76    87    86    1
    77    87    88    1
    78     5     6    1
    79     5     2    1
    80     6     7    1
    81    79    78    1
    82     7     1    1
    83    88    90   am
    84    88    89    2
    85    90    91    1
    86    93    92    2
    87     2     1    1
    88     2     3    1
    89    45    44    1
    90    45    46    2
    91    44    47    1
    92    44    43    1
    93    52    50   ar
    94    52    53   ar
    95    50    48   ar
    96    94    91    1
    97    94    95    1
    98    91    92    1
    99     4     3    2
   100     3     8   am
   101    47    48    1
   102    53    51   ar
   103    48    49   ar
   104    96    95    1
   105    96    97    1
   106     8     9    1
   107    14    12    1
   108    51    49   ar
   109    42    39    1
   110    98    97    1
   111     9    12    1
   112     9    10    1
   113    12    13    1
   114    40    39    1
   115    40    41    2
   116    39    38    1
   117    36    35    2
   118    10    11    2
   119   134   133   ar
   120   134   132   ar
   121   133   131   ar
   122    38    35   am
   123   132   130   ar
   124   131   129   ar
   125    35    34    1
   126   130   129   ar
   127   129   128    1
   128    25    23    1
   129   128   125    1
   130    32    30    1
   131    34    33    1
   132    34    37    1
   133   125   126    1
   134   125   124    1
   135   126   127    2
   136    33    28   am
   137    22    23    2
   138    22    21    1
   139    23    24    1
   140   123   121    1
   141    30    27    1
   142    30    31    1
   143    20    21    1
   144    20    19    1
   145   122   121    1
   146    28    27    1
   147    28    29    2
   148   121   118    1
   149    27    26    1
   150    19    16    1
   151   118   119    1
   152   118   117    1
   153   119   120    2
   154    16    15    1
   155    16    17    1
   156    17    18    2
