@<TRIPOS>MOLECULE
tmp/2yw2A00.pdb
 214 197 0 0 0
SMALL
GASTEIGER

@<TRIPOS>ATOM
      1  N          7.2380    2.1440    2.5760 N.3    71  GLU71      -0.1245
      2  CA         7.5640    1.7080    3.9250 C.3    71  GLU71       0.1567
      3  C          9.0260    1.8400    4.3640 C.2    71  GLU71       0.2260
      4  O          9.2880    2.2050    5.5060 O.2    71  GLU71      -0.2867
      5  CB         7.1220    0.2520    4.1140 C.3    71  GLU71       0.0388
      6  CG         7.7420   -0.7170    3.1200 C.3    71  GLU71       0.1160
      7  CD         6.8670   -0.9720    1.8960 C.2    71  GLU71       0.3649
      8  OE1        6.2610   -0.0120    1.3680 O.co2  71  GLU71      -0.2457
      9  OE2        6.8000   -2.1420    1.4540 O.co2  71  GLU71      -0.2457
     10  N          4.9040   -2.2010   11.2770 N.3   100  GLU100     -0.1245
     11  CA         5.1220   -2.8430    9.9780 C.3   100  GLU100      0.1567
     12  C          6.5430   -3.3770    9.9170 C.2   100  GLU100      0.2260
     13  O          6.7720   -4.4730    9.4070 O.2   100  GLU100     -0.2867
     14  CB         4.9340   -1.8810    8.7900 C.3   100  GLU100      0.0388
     15  CG         5.1650   -2.5870    7.4660 C.3   100  GLU100      0.1160
     16  CD         4.9950   -1.6950    6.2390 C.2   100  GLU100      0.3649
     17  OE1        4.4440   -0.5870    6.3680 O.co2 100  GLU100     -0.2457
     18  OE2        5.4080   -2.1180    5.1340 O.co2 100  GLU100     -0.2457
     19  N          7.5570   -7.9040   12.3110 N.3   103  LYS103     -0.1245
     20  CA         6.4160   -8.8040   12.4660 C.3   103  LYS103      0.1561
     21  C          6.3010   -9.2450   13.9190 C.2   103  LYS103      0.2260
     22  O          5.2000   -9.3380   14.4630 O.2   103  LYS103     -0.2867
     23  CB         6.5890  -10.0430   11.5800 C.3   103  LYS103      0.0271
     24  CG         6.4620   -9.7870   10.0890 C.3   103  LYS103      0.0035
     25  CD         5.0450   -9.3950    9.7180 C.3   103  LYS103      0.0206
     26  CE         4.8210   -9.4720    8.2100 C.3   103  LYS103      0.1093
     27  NZ         5.6800   -8.5200    7.4390 N.3   103  LYS103     -0.1314
     28  N         -3.6750  -14.1500   13.0810 N.3   118  ALA118     -0.1245
     29  CA        -3.3470  -15.5720   13.0290 C.3   118  ALA118      0.1562
     30  C         -2.5020  -15.9810   14.2250 C.2   118  ALA118      0.2260
     31  O         -1.6110  -15.2400   14.6470 O.2   118  ALA118     -0.2867
     32  CB        -2.5960  -15.8920   11.7430 C.3   118  ALA118      0.0290
     33  N          2.2320  -20.5320    7.3100 N.3   141  VAL141     -0.1245
     34  CA         2.8430  -19.3360    6.7450 C.3   141  VAL141      0.1561
     35  C          4.1180  -18.9590    7.4870 C.2   141  VAL141      0.2260
     36  O          4.1160  -18.8330    8.7130 O.2   141  VAL141     -0.2867
     37  CB         1.8460  -18.1530    6.7920 C.3   141  VAL141      0.0252
     38  CG1        2.3540  -16.9960    5.9390 C.3   141  VAL141      0.0019
     39  CG2        0.4770  -18.6170    6.3110 C.3   141  VAL141      0.0019
     40  N          7.1360  -16.1360    7.8070 N.3   143  LYS143     -0.1245
     41  CA         7.4710  -14.7510    7.4910 C.3   143  LYS143      0.1561
     42  C          8.7520  -14.2360    8.1330 C.2   143  LYS143      0.2260
     43  O          9.0510  -14.5400    9.2870 O.2   143  LYS143     -0.2867
     44  CB         6.3240  -13.8300    7.9260 C.3   143  LYS143      0.0271
     45  CG         4.9480  -14.2520    7.4550 C.3   143  LYS143      0.0035
     46  CD         3.8920  -13.2430    7.8910 C.3   143  LYS143      0.0206
     47  CE         2.5090  -13.6700    7.4510 C.3   143  LYS143      0.1093
     48  NZ         1.4840  -12.6340    7.7880 N.3   143  LYS143     -0.1314
     49  N         11.7030   -8.5880    9.4250 N.3   146  GLY146     -0.1210
     50  CA        11.7640   -7.2560    8.8410 C.3   146  GLY146      0.1956
     51  C         11.4300   -7.1410    7.3660 C.2   146  GLY146      0.2612
     52  O         11.0510   -8.1220    6.7270 O.2   146  GLY146     -0.2717
     53  N         11.5760   -5.9330    6.8220 N.am  147  LEU147     -0.1965
     54  CA        11.2840   -5.6850    5.4100 C.3   147  LEU147      0.1728
     55  C         12.1380   -6.5860    4.5300 C.2   147  LEU147      0.2616
     56  O         13.3350   -6.7470    4.7680 O.2   147  LEU147     -0.2715
     57  CB        11.5540   -4.2190    5.0590 C.3   147  LEU147      0.0311
     58  CG        10.8300   -3.1680    5.9100 C.3   147  LEU147      0.0022
     59  CD1       11.1580   -1.7820    5.3830 C.3   147  LEU147      0.0001
     60  CD2        9.3260   -3.4070    5.8810 C.3   147  LEU147      0.0001
     61  N         11.5190   -7.1700    3.5110 N.am  148  ALA148     -0.1977
     62  CA        12.2260   -8.0680    2.6090 C.3   148  ALA148      0.1597
     63  C         11.8460   -7.7990    1.1590 C.2   148  ALA148      0.2287
     64  O         11.9560   -8.6740    0.3010 O.2   148  ALA148     -0.2864
     65  CB        11.9210   -9.5170    2.9770 C.3   148  ALA148      0.0319
     66  N          8.9930   -7.5270   -0.3910 N.3   150  GLY150     -0.1225
     67  CA         7.9950   -8.4310   -0.9400 C.3   150  GLY150      0.1811
     68  C          8.3330   -9.9120   -0.9900 C.2   150  GLY150      0.2280
     69  O          7.5960  -10.6980   -1.5870 O.2   150  GLY150     -0.2866
     70  N          9.4450  -11.5440    2.0310 N.3   152  GLY152     -0.1210
     71  CA         9.5020  -12.0080    3.4060 C.3   152  GLY152      0.1956
     72  C          8.3740  -12.8890    3.9180 C.2   152  GLY152      0.2611
     73  O          8.5780  -13.6480    4.8620 O.2   152  GLY152     -0.2717
     74  N          7.1920  -12.7910    3.3190 N.am  153  ALA153     -0.1979
     75  CA         6.0520  -13.5940    3.7600 C.3   153  ALA153      0.1597
     76  C          5.7340  -14.6760    2.7380 C.2   153  ALA153      0.2287
     77  O          5.3160  -14.3830    1.6180 O.2   153  ALA153     -0.2864
     78  CB         4.8360  -12.6980    3.9820 C.3   153  ALA153      0.0319
     79  N          3.6200  -18.3010    1.9090 N.3   155  VAL155     -0.1245
     80  CA         2.6030  -19.2930    2.2300 C.3   155  VAL155      0.1561
     81  C          3.1810  -20.6350    1.7820 C.2   155  VAL155      0.2260
     82  O          3.5590  -20.7970    0.6200 O.2   155  VAL155     -0.2867
     83  CB         1.2820  -19.0310    1.4650 C.3   155  VAL155      0.0252
     84  CG1        0.3050  -20.1770    1.7000 C.3   155  VAL155      0.0019
     85  CG2        0.6640  -17.7160    1.9280 C.3   155  VAL155      0.0019
     86  N          3.0030  -18.5440   11.3100 N.3   185  GLU185     -0.1231
     87  CA         1.6200  -18.4410   11.7360 C.3   185  GLU185      0.1699
     88  C          0.6710  -19.3190   10.9540 C.2   185  GLU185      0.2592
     89  O          0.9870  -19.7740    9.8550 O.2   185  GLU185     -0.2718
     90  CB         1.1450  -16.9860   11.6730 C.3   185  GLU185      0.0402
     91  CG         1.2580  -16.3280   10.3120 C.3   185  GLU185      0.1161
     92  CD         0.7950  -14.8800   10.3490 C.2   185  GLU185      0.3649
     93  OE1        1.2140  -14.1580   11.2800 O.co2 185  GLU185     -0.2457
     94  OE2        0.0230  -14.4680    9.4560 O.co2 185  GLU185     -0.2457
     95  N         -0.5030  -19.5430   11.5340 N.am  186  GLU186     -0.1966
     96  CA        -1.5140  -20.3840   10.9070 C.3   186  GLU186      0.1733
     97  C         -2.0440  -19.7840    9.6150 C.2   186  GLU186      0.2616
     98  O         -2.1850  -18.5680    9.4900 O.2   186  GLU186     -0.2715
     99  CB        -2.6810  -20.6160   11.8670 C.3   186  GLU186      0.0429
    100  CG        -3.5120  -19.3770   12.1540 C.3   186  GLU186      0.1163
    101  CD        -4.7030  -19.6720   13.0440 C.2   186  GLU186      0.3649
    102  OE1       -5.4800  -20.5900   12.7070 O.co2 186  GLU186     -0.2457
    103  OE2       -4.8660  -18.9840   14.0740 O.co2 186  GLU186     -0.2457
    104  N         -2.3300  -20.6550    8.6540 N.am  187  PHE187     -0.1960
    105  CA        -2.8710  -20.2360    7.3700 C.3   187  PHE187      0.1771
    106  C         -4.3480  -19.9250    7.5890 C.2   187  PHE187      0.2619
    107  O         -5.0950  -20.7640    8.0910 O.2   187  PHE187     -0.2715
    108  CB        -2.7190  -21.3670    6.3470 C.3   187  PHE187      0.0574
    109  CG        -3.2860  -21.0440    4.9990 C.ar  187  PHE187     -0.0200
    110  CD1       -2.6440  -20.1470    4.1560 C.ar  187  PHE187     -0.0042
    111  CD2       -4.4760  -21.6260    4.5790 C.ar  187  PHE187     -0.0042
    112  CE1       -3.1790  -19.8310    2.9080 C.ar  187  PHE187     -0.0003
    113  CE2       -5.0230  -21.3200    3.3380 C.ar  187  PHE187     -0.0003
    114  CZ        -4.3740  -20.4210    2.5000 C.ar  187  PHE187     -0.0000
    115  N         -4.7630  -18.7140    7.2360 N.am  188  LEU188     -0.1977
    116  CA        -6.1570  -18.3110    7.4020 C.3   188  LEU188      0.1596
    117  C         -6.8710  -18.3520    6.0590 C.2   188  LEU188      0.2287
    118  O         -6.2810  -18.0530    5.0220 O.2   188  LEU188     -0.2864
    119  CB        -6.2450  -16.8890    7.9740 C.3   188  LEU188      0.0297
    120  CG        -5.6210  -16.6190    9.3460 C.3   188  LEU188      0.0022
    121  CD1       -5.7310  -15.1400    9.6550 C.3   188  LEU188      0.0001
    122  CD2       -6.3220  -17.4370   10.4170 C.3   188  LEU188      0.0001
    123  N         -9.7000  -11.7560    1.2030 N.3   192  GLU192     -0.1245
    124  CA        -8.7580  -10.7080    1.5770 C.3   192  GLU192      0.1567
    125  C         -9.3770   -9.3440    1.3010 C.2   192  GLU192      0.2260
    126  O        -10.1830   -9.1900    0.3820 O.2   192  GLU192     -0.2867
    127  CB        -7.4530  -10.8310    0.7870 C.3   192  GLU192      0.0388
    128  CG        -6.5910  -12.0150    1.1770 C.3   192  GLU192      0.1160
    129  CD        -5.1670  -11.8730    0.6780 C.2   192  GLU192      0.3649
    130  OE1       -4.5130  -10.8680    1.0310 O.co2 192  GLU192     -0.2457
    131  OE2       -4.6980  -12.7610   -0.0640 O.co2 192  GLU192     -0.2457
    132  N         -3.0290  -10.1520   -4.8260 N.3   214  LYS214     -0.1231
    133  CA        -1.6010  -10.3890   -4.6300 C.3   214  LYS214      0.1693
    134  C         -0.8680  -11.3650   -5.5410 C.2   214  LYS214      0.2591
    135  O          0.3120  -11.1630   -5.8280 O.2   214  LYS214     -0.2718
    136  CB        -1.3640  -10.7910   -3.1710 C.3   214  LYS214      0.0285
    137  CG        -1.7530   -9.7140   -2.1660 C.3   214  LYS214      0.0035
    138  CD        -0.7000   -8.6100   -2.0870 C.3   214  LYS214      0.0206
    139  CE         0.5810   -9.1240   -1.4430 C.3   214  LYS214      0.1093
    140  NZ         1.6580   -8.0910   -1.4110 N.3   214  LYS214     -0.1314
    141  N         -1.5420  -12.4220   -5.9860 N.am  215  ARG215     -0.1980
    142  CA        -0.9060  -13.4100   -6.8560 C.3   215  ARG215      0.1597
    143  C         -0.6770  -12.8550   -8.2530 C.2   215  ARG215      0.2287
    144  O         -1.4620  -12.0410   -8.7470 O.2   215  ARG215     -0.2864
    145  CB        -1.7600  -14.6770   -6.9350 C.3   215  ARG215      0.0334
    146  CG        -1.8790  -15.4160   -5.6150 C.3   215  ARG215      0.0492
    147  CD        -0.5430  -16.0060   -5.1960 C.3   215  ARG215      0.2205
    148  NE        -0.5190  -16.3550   -3.7790 N.pl3 215  ARG215     -0.0865
    149  CZ         0.5120  -16.9300   -3.1690 C.cat 215  ARG215      0.5346
    150  NH1        1.6080  -17.2320   -3.8530 N.pl3 215  ARG215      0.1354
    151  NH2        0.4540  -17.1910   -1.8700 N.pl3 215  ARG215      0.1354
    152  N          3.5550  -14.7430   -5.1030 N.3   224  ASN224     -0.1225
    153  CA         3.0260  -13.5620   -4.4460 C.3   224  ASN224      0.1785
    154  C          3.7480  -12.3430   -5.0310 C.2   224  ASN224      0.2598
    155  O          4.9060  -12.4430   -5.4320 O.2   224  ASN224     -0.2718
    156  CB         3.2880  -13.6740   -2.9440 C.3   224  ASN224      0.1169
    157  CG         2.7890  -12.4780   -2.1750 C.2   224  ASN224      0.2627
    158  OD1        3.5620  -11.7950   -1.5010 O.2   224  ASN224     -0.2716
    159  ND2        1.4920  -12.2160   -2.2640 N.am  224  ASN224     -0.0877
    160  N          3.0610  -11.2040   -5.0940 N.am  225  THR225     -0.1939
    161  CA         3.6440   -9.9790   -5.6380 C.3   225  THR225      0.2028
    162  C          3.2570   -8.8270   -4.7190 C.2   225  THR225      0.2642
    163  O          2.6060   -9.0360   -3.7020 O.2   225  THR225     -0.2714
    164  CB         3.0900   -9.6390   -7.0490 C.3   225  THR225      0.1808
    165  OG1        1.7150   -9.2450   -6.9350 O.3   225  THR225     -0.2208
    166  CG2        3.1840  -10.8430   -7.9840 C.3   225  THR225      0.0379
    167  N          3.6450   -7.6110   -5.0840 N.am  226  GLY226     -0.1954
    168  CA         3.2940   -6.4660   -4.2600 C.3   226  GLY226      0.1869
    169  C          1.8410   -6.0570   -4.4490 C.2   226  GLY226      0.2309
    170  O          1.3000   -5.2680   -3.6710 O.2   226  GLY226     -0.2863
    171  N         -7.8780  -10.5850    6.3230 N.3   273  MET273     -0.1245
    172  CA        -8.4120  -11.8260    5.7960 C.3   273  MET273      0.1570
    173  C         -9.7450  -11.8660    6.5260 C.2   273  MET273      0.2261
    174  O         -9.7880  -11.9110    7.7560 O.2   273  MET273     -0.2867
    175  CB        -7.5660  -13.0370    6.1840 C.3   273  MET273      0.0387
    176  CG        -8.0810  -14.3430    5.5670 C.3   273  MET273      0.0595
    177  SD        -8.0800  -14.2970    3.7500 S.3   273  MET273     -0.1393
    178  CE        -6.4390  -14.8740    3.4050 C.3   273  MET273      0.0692
    179  N         -3.5830   -9.7010    8.8060 N.3   282  LEU282     -0.1231
    180  CA        -2.5100  -10.4870    8.2170 C.3   282  LEU282      0.1693
    181  C         -1.2220   -9.7330    8.5350 C.2   282  LEU282      0.2591
    182  O         -0.1960  -10.3280    8.8700 O.2   282  LEU282     -0.2718
    183  CB        -2.6960  -10.6150    6.7060 C.3   282  LEU282      0.0284
    184  CG        -3.9250  -11.4460    6.3200 C.3   282  LEU282      0.0019
    185  CD1       -3.8840  -11.7150    4.8280 C.3   282  LEU282      0.0001
    186  CD2       -3.9420  -12.7700    7.0910 C.3   282  LEU282      0.0001
    187  N         -1.2860   -8.4140    8.4170 N.am  283  GLU283     -0.1979
    188  CA        -0.1470   -7.5680    8.7500 C.3   283  GLU283      0.1602
    189  C         -0.5600   -6.1060    8.7630 C.2   283  GLU283      0.2287
    190  O         -1.5980   -5.7430    8.2130 O.2   283  GLU283     -0.2864
    191  CB         1.0120   -7.7620    7.7570 C.3   283  GLU283      0.0415
    192  CG         0.9010   -7.0020    6.4430 C.3   283  GLU283      0.1163
    193  CD        -0.0580   -7.6400    5.4560 C.2   283  GLU283      0.3649
    194  OE1        0.0740   -8.8550    5.2020 O.co2 283  GLU283     -0.2457
    195  OE2       -0.9320   -6.9240    4.9230 O.co2 283  GLU283     -0.2457
    196  N          0.5430   -2.1610    7.8050 N.3   285  ASN285     -0.1240
    197  CA         1.3780   -1.4220    6.8670 C.3   285  ASN285      0.1653
    198  C          1.1740    0.0240    7.3170 C.2   285  ASN285      0.2266
    199  O          0.0500    0.5270    7.3190 O.2   285  ASN285     -0.2867
    200  CB         0.8710   -1.6450    5.4450 C.3   285  ASN285      0.1155
    201  CG         0.8100   -3.1170    5.0860 C.2   285  ASN285      0.2627
    202  OD1        1.8360   -3.7510    4.8480 O.2   285  ASN285     -0.2716
    203  ND2       -0.3980   -3.6750    5.0700 N.am  285  ASN285     -0.0877
    204  N          1.5160    2.8760    6.0730 N.3   287  ARG287     -0.1245
    205  CA         1.4470    3.7920    4.9490 C.3   287  ARG287      0.1563
    206  C          0.3290    3.3240    4.0270 C.2   287  ARG287      0.2260
    207  O         -0.3280    2.3290    4.3110 O.2   287  ARG287     -0.2867
    208  CB         2.7670    3.7970    4.1680 C.3   287  ARG287      0.0307
    209  CG         3.5030    2.4490    4.0100 C.3   287  ARG287      0.0489
    210  CD         2.7620    1.3440    3.2420 C.3   287  ARG287      0.2205
    211  NE         3.3570    0.0220    3.3660 N.pl3 287  ARG287     -0.0865
    212  CZ         3.0030   -1.0410    2.6400 C.cat 287  ARG287      0.5346
    213  NH1        2.0370   -0.9660    1.7330 N.pl3 287  ARG287      0.1354
    214  NH2        3.6370   -2.1860    2.8040 N.pl3 287  ARG287      0.1354
@<TRIPOS>BOND
     1   144   143    2
     2   143   142    1
     3   166   164    1
     4   164   165    1
     5   164   161    1
     6   145   142    1
     7   145   146    1
     8   142   141    1
     9   141   134   am
    10   135   134    2
    11   161   160    1
    12   161   162    1
    13   146   147    1
    14   134   133    1
    15   155   154    2
    16   147   148    1
    17   152   153    1
    18   160   154   am
    19   167   162   am
    20   167   168    1
    21   154   153    1
    22   132   133    1
    23   162   163    2
    24   133   136    1
    25   169   168    1
    26   169   170    2
    27   153   156    1
    28   150   149    1
    29   148   149    2
    30   136   137    1
    31   149   151    1
    32   156   157    1
    33   159   157   am
    34   157   158    2
    35   137   138    1
    36   138   139    1
    37    69    68    2
    38   139   140    1
    39    68    67    1
    40    67    66    1
    41   131   129   ar
    42    64    63    2
    43   126   125    2
    44    82    81    2
    45   129   130   ar
    46   129   128    1
    47   127   128    1
    48   127   124    1
    49    63    62    1
    50   123   124    1
    51   125   124    1
    52     8     7   ar
    53     9     7   ar
    54    83    84    1
    55    83    85    1
    56    83    80    1
    57    77    76    2
    58   213   212    1
    59    81    80    1
    60     7     6    1
    61    79    80    1
    62    70    71    1
    63   114   112   ar
    64   114   113   ar
    65     1     2    1
    66    62    65    1
    67    62    61    1
    68   212   214    1
    69   212   211    2
    70    76    75    1
    71   112   110   ar
    72     6     5    1
    73   210   211    1
    74   210   209    1
    75    74    75    1
    76    74    72   am
    77   113   111   ar
    78   178   177    1
    79    71    72    1
    80    61    55   am
    81   177   176    1
    82    75    78    1
    83    72    73    2
    84     2     5    1
    85     2     3    1
    86   209   208    1
    87   206   207    2
    88   206   205    1
    89   110   109   ar
    90   208   205    1
    91     3     4    2
    92    55    56    2
    93    55    54    1
    94   111   109   ar
    95   185   184    1
    96   202   201    2
    97   195   193   ar
    98   205   204    1
    99   109   108    1
   100   118   117    2
   101    57    54    1
   102    57    58    1
   103   203   201   am
   104   201   200    1
   105    18    16   ar
   106   194   193   ar
   107    59    58    1
   108    54    53    1
   109   200   197    1
   110   193   192    1
   111   176   175    1
   112   172   175    1
   113   172   171    1
   114   172   173    1
   115    60    58    1
   116    38    37    1
   117   117   116    1
   118    16    17   ar
   119    16    15    1
   120    39    37    1
   121   184   183    1
   122   184   186    1
   123   108   105    1
   124   192   191    1
   125   173   174    2
   126   183   180    1
   127    52    51    2
   128    34    37    1
   129    34    33    1
   130    34    35    1
   131    53    51   am
   132   197   198    1
   133   197   196    1
   134   115   116    1
   135   115   106   am
   136   198   199    2
   137    51    50    1
   138   105   106    1
   139   105   104    1
   140   116   119    1
   141    27    26    1
   142    47    48    1
   143    47    46    1
   144    45    46    1
   145    45    44    1
   146    15    14    1
   147    35    36    2
   148    41    40    1
   149    41    44    1
   150    41    42    1
   151   106   107    2
   152   191   188    1
   153   119   120    1
   154    42    43    2
   155    26    25    1
   156   190   189    2
   157   180   181    1
   158   180   179    1
   159   187   181   am
   160   187   188    1
   161   181   182    2
   162   104    97   am
   163   188   189    1
   164    14    11    1
   165    50    49    1
   166   120   121    1
   167   120   122    1
   168    13    12    2
   169    94    92   ar
   170    98    97    2
   171    97    96    1
   172    25    24    1
   173    89    88    2
   174    12    11    1
   175    11    10    1
   176    24    23    1
   177    91    92    1
   178    91    90    1
   179    92    93   ar
   180    96    95    1
   181    96    99    1
   182    88    95   am
   183    88    87    1
   184    86    87    1
   185    23    20    1
   186    90    87    1
   187    32    29    1
   188    99   100    1
   189   100   101    1
   190    19    20    1
   191    20    21    1
   192   102   101   ar
   193    29    28    1
   194    29    30    1
   195   101   103   ar
   196    21    22    2
   197    30    31    2
