@<TRIPOS>MOLECULE
tmp/2ywcA00.pdb
 109 107 0 0 0
SMALL
GASTEIGER

@<TRIPOS>ATOM
      1  N        -23.1520   42.2020   68.1650 N.3   284  ARG284     -0.1245
      2  CA       -23.6400   41.2050   69.1120 C.3   284  ARG284      0.1563
      3  C        -23.1470   41.5120   70.5180 C.2   284  ARG284      0.2260
      4  O        -23.8770   41.3240   71.4920 O.2   284  ARG284     -0.2867
      5  CB       -23.1870   39.8050   68.7100 C.3   284  ARG284      0.0307
      6  CG       -23.7390   39.2900   67.3800 C.3   284  ARG284      0.0489
      7  CD       -23.3270   37.8300   67.1990 C.3   284  ARG284      0.2205
      8  NE       -23.4290   37.3420   65.8240 N.pl3 284  ARG284     -0.0865
      9  CZ       -24.5670   37.0550   65.2070 C.cat 284  ARG284      0.5346
     10  NH1      -25.7200   37.2070   65.8300 N.pl3 284  ARG284      0.1354
     11  NH2      -24.5490   36.5860   63.9720 N.pl3 284  ARG284      0.1354
     12  N        -37.7450   30.6250   64.2270 N.3   360  PRO360     -0.2102
     13  CA       -36.7810   31.1920   65.1710 C.3   360  PRO360      0.1504
     14  C        -36.3600   32.5680   64.6800 C.2   360  PRO360      0.2576
     15  O        -36.2960   32.8060   63.4680 O.2   360  PRO360     -0.2718
     16  CB       -35.6050   30.2190   65.1070 C.3   360  PRO360      0.0282
     17  CG       -36.1960   28.9470   64.5310 C.3   360  PRO360      0.0208
     18  CD       -37.1740   29.4590   63.5310 C.3   360  PRO360      0.0893
     19  N        -36.0670   33.4610   65.6220 N.am  361  PHE361     -0.1963
     20  CA       -35.6240   34.8170   65.3090 C.3   361  PHE361      0.1756
     21  C        -34.5200   35.0870   66.3340 C.2   361  PHE361      0.2461
     22  O        -34.7140   34.8370   67.5150 O.2   361  PHE361     -0.2730
     23  CB       -36.7840   35.8030   65.4800 C.3   361  PHE361      0.0574
     24  CG       -36.4830   37.1760   64.9660 C.ar  361  PHE361     -0.0200
     25  CD1      -36.3100   37.3940   63.6000 C.ar  361  PHE361     -0.0042
     26  CD2      -36.3430   38.2530   65.8470 C.ar  361  PHE361     -0.0042
     27  CE1      -35.9990   38.6620   63.1110 C.ar  361  PHE361     -0.0003
     28  CE2      -36.0350   39.5160   65.3690 C.ar  361  PHE361     -0.0003
     29  CZ       -35.8600   39.7250   63.9940 C.ar  361  PHE361     -0.0000
     30  N        -33.3570   35.6120   65.8990 N.am  362  PRO362     -0.2716
     31  CA       -32.2320   35.8860   66.8110 C.3   362  PRO362      0.1536
     32  C        -32.3530   37.0270   67.8290 C.2   362  PRO362      0.2599
     33  O        -33.0400   38.0230   67.5910 O.2   362  PRO362     -0.2715
     34  CB       -31.0590   36.0950   65.8570 C.3   362  PRO362      0.0310
     35  CG       -31.7190   36.7530   64.6570 C.3   362  PRO362      0.0237
     36  CD       -33.0410   36.0100   64.5130 C.3   362  PRO362      0.0939
     37  N        -31.6620   36.8640   68.9590 N.am  363  GLY363     -0.1941
     38  CA       -31.6680   37.8690   70.0100 C.3   363  GLY363      0.1998
     39  C        -31.3240   39.2440   69.4680 C.2   363  GLY363      0.2480
     40  O        -31.9970   40.2120   69.7810 O.2   363  GLY363     -0.2729
     41  N        -30.2630   39.3670   68.6700 N.am  364  PRO364     -0.2726
     42  CA       -29.8850   40.6690   68.1090 C.3   364  PRO364      0.1402
     43  C        -30.7820   41.1030   66.9440 C.2   364  PRO364      0.2269
     44  O        -30.5200   42.1180   66.2880 O.2   364  PRO364     -0.2865
     45  CB       -28.4320   40.4570   67.6800 C.3   364  PRO364      0.0296
     46  CG       -28.3810   38.9920   67.3770 C.3   364  PRO364      0.0237
     47  CD       -29.1760   38.3890   68.5130 C.3   364  PRO364      0.0939
     48  N        -36.6880   28.1740   58.5490 N.3   404  GLN404     -0.1245
     49  CA       -36.4400   29.5800   58.8290 C.3   404  GLN404      0.1566
     50  C        -36.3240   30.3750   57.5370 C.2   404  GLN404      0.2260
     51  O        -35.8220   29.8830   56.5360 O.2   404  GLN404     -0.2867
     52  CB       -35.1550   29.7290   59.6630 C.3   404  GLN404      0.0367
     53  CG       -34.7580   31.1670   59.9660 C.3   404  GLN404      0.0905
     54  CD       -33.6480   31.2700   61.0190 C.2   404  GLN404      0.2608
     55  OE1      -32.6970   30.4780   61.0300 O.2   404  GLN404     -0.2717
     56  NE2      -33.7650   32.2590   61.8980 N.am  404  GLN404     -0.0878
     57  N        -30.1580   22.8290   63.1240 N.3   426  PHE426     -0.1241
     58  CA       -29.6790   24.1570   62.7350 C.3   426  PHE426      0.1605
     59  C        -28.1610   24.3860   62.6510 C.2   426  PHE426      0.2264
     60  O        -27.6900   25.5120   62.8300 O.2   426  PHE426     -0.2867
     61  CB       -30.3110   25.1960   63.6670 C.3   426  PHE426      0.0534
     62  CG       -31.7110   25.5680   63.2780 C.ar  426  PHE426     -0.0203
     63  CD1      -32.8010   25.0330   63.9590 C.ar  426  PHE426     -0.0042
     64  CD2      -31.9420   26.3950   62.1830 C.ar  426  PHE426     -0.0042
     65  CE1      -34.1050   25.3130   63.5510 C.ar  426  PHE426     -0.0003
     66  CE2      -33.2400   26.6840   61.7640 C.ar  426  PHE426     -0.0003
     67  CZ       -34.3270   26.1400   62.4470 C.ar  426  PHE426     -0.0000
     68  N        -25.4710   25.0230   54.4240 N.3   462  LYS462     -0.1245
     69  CA       -24.6050   25.0040   55.5940 C.3   462  LYS462      0.1561
     70  C        -24.2540   23.5620   55.9640 C.2   462  LYS462      0.2260
     71  O        -25.1220   22.8000   56.3710 O.2   462  LYS462     -0.2867
     72  CB       -25.2900   25.6570   56.7890 C.3   462  LYS462      0.0271
     73  CG       -24.4590   25.5760   58.0700 C.3   462  LYS462      0.0035
     74  CD       -25.1950   26.1730   59.2650 C.3   462  LYS462      0.0206
     75  CE       -24.2350   26.4450   60.4250 C.3   462  LYS462      0.1093
     76  NZ       -24.9130   27.1140   61.5590 N.3   462  LYS462     -0.1314
     77  N        -23.1680   30.0120   56.9560 N.3   466  THR466     -0.1203
     78  CA       -24.0760   30.1480   58.0820 C.3   466  THR466      0.1994
     79  C        -25.4810   30.4850   57.5850 C.2   466  THR466      0.2618
     80  O        -25.6680   30.8630   56.4280 O.2   466  THR466     -0.2717
     81  CB       -23.6050   31.2750   59.0010 C.3   466  THR466      0.1784
     82  OG1      -23.2560   32.4130   58.1990 O.3   466  THR466     -0.2211
     83  CG2      -22.3950   30.8300   59.8180 C.3   466  THR466      0.0376
     84  N        -26.4690   30.3530   58.4570 N.am  467  ILE467     -0.1965
     85  CA       -27.8310   30.6740   58.0700 C.3   467  ILE467      0.1727
     86  C        -27.9560   32.1950   57.9490 C.2   467  ILE467      0.2616
     87  O        -28.4280   32.6950   56.9310 O.2   467  ILE467     -0.2715
     88  CB       -28.8430   30.0970   59.0870 C.3   467  ILE467      0.0290
     89  CG1      -28.7960   28.5680   59.0160 C.3   467  ILE467      0.0022
     90  CG2      -30.2510   30.6070   58.7780 C.3   467  ILE467      0.0023
     91  CD1      -29.7470   27.7710   59.9560 C.3   467  ILE467      0.0001
     92  N        -27.5200   32.9260   58.9800 N.am  468  GLU468     -0.1977
     93  CA       -27.5530   34.3920   58.9540 C.3   468  GLU468      0.1602
     94  C        -26.3820   34.8550   58.0860 C.2   468  GLU468      0.2287
     95  O        -25.4180   34.1140   57.8930 O.2   468  GLU468     -0.2864
     96  CB       -27.3740   34.9800   60.3580 C.3   468  GLU468      0.0415
     97  CG       -28.4500   34.6260   61.3850 C.3   468  GLU468      0.1163
     98  CD       -29.8170   35.2210   61.0640 C.2   468  GLU468      0.3649
     99  OE1      -29.8880   36.2760   60.3880 O.co2 468  GLU468     -0.2457
    100  OE2      -30.8240   34.6320   61.5090 O.co2 468  GLU468     -0.2457
    101  N        -24.4300   37.2960   58.8530 N.3   470  GLU470     -0.1245
    102  CA       -23.3820   37.8510   59.6980 C.3   470  GLU470      0.1567
    103  C        -23.6100   37.4770   61.1510 C.2   470  GLU470      0.2260
    104  O        -24.6810   36.9070   61.4450 O.2   470  GLU470     -0.2867
    105  CB       -23.3070   39.3770   59.5590 C.3   470  GLU470      0.0388
    106  CG       -24.4810   40.1380   60.1450 C.3   470  GLU470      0.1160
    107  CD       -24.2600   41.6460   60.1280 C.2   470  GLU470      0.3649
    108  OE1      -24.0090   42.2070   59.0410 O.co2 470  GLU470     -0.2457
    109  OE2      -24.3390   42.2730   61.2050 O.co2 470  GLU470     -0.2457
@<TRIPOS>BOND
     1    68    69    1
     2    69    70    1
     3    69    72    1
     4    70    71    2
     5    80    79    2
     6    51    50    2
     7    72    73    1
     8    87    86    2
     9    77    78    1
    10    50    49    1
    11    79    78    1
    12    79    84   am
    13    95    94    2
    14    86    85    1
    15    86    92   am
    16    85    84    1
    17    85    88    1
    18    73    74    1
    19    78    81    1
    20    94    93    1
    21    82    81    1
    22    48    49    1
    23    90    88    1
    24    49    52    1
    25   101   102    1
    26    93    92    1
    27    93    96    1
    28    81    83    1
    29    89    88    1
    30    89    91    1
    31   108   107   ar
    32    74    75    1
    33   105   102    1
    34   105   106    1
    35    52    53    1
    36   102   103    1
    37    53    54    1
    38   107   106    1
    39   107   109   ar
    40    96    97    1
    41    99    98   ar
    42    75    76    1
    43    54    55    2
    44    54    56   am
    45    98    97    1
    46    98   100   ar
    47   103   104    2
    48    66    64   ar
    49    66    67   ar
    50    64    62   ar
    51    67    65   ar
    52    59    58    1
    53    59    60    2
    54    58    57    1
    55    58    61    1
    56    27    25   ar
    57    27    29   ar
    58    62    61    1
    59    62    63   ar
    60    15    14    2
    61    18    12    1
    62    18    17    1
    63    65    63   ar
    64    25    24   ar
    65    11     9    1
    66    29    28   ar
    67    12    13    1
    68    36    35    1
    69    36    30    1
    70    17    16    1
    71    35    34    1
    72    14    13    1
    73    14    19   am
    74    24    23    1
    75    24    26   ar
    76    16    13    1
    77     9     8    2
    78     9    10    1
    79    20    23    1
    80    20    19    1
    81    20    21    1
    82    28    26   ar
    83     8     7    1
    84    34    31    1
    85    30    21   am
    86    30    31    1
    87    44    43    2
    88    21    22    2
    89    31    32    1
    90    43    42    1
    91     7     6    1
    92    46    45    1
    93    46    47    1
    94     6     5    1
    95    33    32    2
    96    45    42    1
    97    32    37   am
    98    42    41    1
    99     1     2    1
   100    47    41    1
   101    41    39   am
   102     5     2    1
   103    37    38    1
   104     2     3    1
   105    39    40    2
   106    39    38    1
   107     3     4    2
