@<TRIPOS>MOLECULE
tmp/2ywfA00.pdb
 123 120 0 0 0
SMALL
GASTEIGER

@<TRIPOS>ATOM
      1  N        -13.3940   35.1960    7.4840 N.3    13  ALA13      -0.1231
      2  CA       -13.5840   35.7530    8.8100 C.3    13  ALA13       0.1694
      3  C        -14.0390   34.7040    9.7940 C.2    13  ALA13       0.2592
      4  O        -14.6370   33.6940    9.4200 O.2    13  ALA13      -0.2718
      5  CB       -14.6080   36.8730    8.7550 C.3    13  ALA13       0.0304
      6  N        -13.7430   34.9500   11.0620 N.am   14  HIS14      -0.1962
      7  CA       -14.1580   34.0460   12.1080 C.3    14  HIS14       0.1787
      8  C        -15.6890   34.1380   12.1050 C.2    14  HIS14       0.2620
      9  O        -16.2530   35.1840   11.7600 O.2    14  HIS14      -0.2715
     10  CB       -13.5730   34.5120   13.4410 C.3    14  HIS14       0.0785
     11  CG       -13.7570   33.5340   14.5540 C.ar   14  HIS14       0.0821
     12  ND1      -14.8060   33.6060   15.4450 N.ar   14  HIS14      -0.2267
     13  CD2      -13.0310   32.4490   14.9130 C.ar   14  HIS14       0.1154
     14  CE1      -14.7180   32.6090   16.3070 C.ar   14  HIS14       0.1986
     15  NE2      -13.6500   31.8920   16.0050 N.ar   14  HIS14      -0.2212
     16  N        -16.3590   33.0430   12.4530 N.am   15  VAL15      -0.1963
     17  CA       -17.8150   33.0190   12.4780 C.3    15  VAL15       0.1727
     18  C        -18.3860   34.1520   13.3200 C.2    15  VAL15       0.2616
     19  O        -17.8900   34.4330   14.4100 O.2    15  VAL15      -0.2715
     20  CB       -18.3270   31.6750   13.0200 C.3    15  VAL15       0.0290
     21  CG1      -19.8460   31.6970   13.1300 C.3    15  VAL15       0.0023
     22  CG2      -17.8920   30.5550   12.0880 C.3    15  VAL15       0.0023
     23  N        -19.4200   34.8040   12.7880 N.am   16  ASP16      -0.1957
     24  CA       -20.1000   35.9260   13.4420 C.3    16  ASP16       0.1840
     25  C        -19.4730   37.3040   13.2450 C.2    16  ASP16       0.2622
     26  O        -20.0450   38.3070   13.6720 O.2    16  ASP16      -0.2715
     27  CB       -20.2350   35.6750   14.9430 C.3    16  ASP16       0.1450
     28  CG       -21.5690   35.0940   15.3070 C.2    16  ASP16       0.3671
     29  OD1      -22.5790   35.8110   15.1560 O.co2  16  ASP16      -0.2456
     30  OD2      -21.6130   33.9240   15.7350 O.co2  16  ASP16      -0.2456
     31  N        -18.3080   37.3750   12.6070 N.am   17  HIS17      -0.1959
     32  CA       -17.6810   38.6780   12.4220 C.3    17  HIS17       0.1787
     33  C        -18.3140   39.5390   11.3210 C.2    17  HIS17       0.2621
     34  O        -17.9690   40.7150   11.1710 O.2    17  HIS17      -0.2715
     35  CB       -16.1690   38.5180   12.2230 C.3    17  HIS17       0.0785
     36  CG       -15.4440   38.1410   13.4790 C.ar   17  HIS17       0.0821
     37  ND1      -14.1270   38.4770   13.7140 N.ar   17  HIS17      -0.2267
     38  CD2      -15.8630   37.4720   14.5820 C.ar   17  HIS17       0.1154
     39  CE1      -13.7670   38.0340   14.9060 C.ar   17  HIS17       0.1986
     40  NE2      -14.8020   37.4210   15.4530 N.ar   17  HIS17      -0.2212
     41  N        -19.2500   38.9580   10.5720 N.am   18  GLY18      -0.1940
     42  CA       -19.9480   39.7100    9.5410 C.3    18  GLY18       0.2014
     43  C        -19.7190   39.3630    8.0800 C.2    18  GLY18       0.2639
     44  O        -19.9090   40.2230    7.2180 O.2    18  GLY18      -0.2714
     45  N        -19.3250   38.1270    7.7820 N.am   19  LYS19      -0.1963
     46  CA       -19.0770   37.7370    6.3930 C.3    19  LYS19       0.1728
     47  C        -20.3110   37.9050    5.5030 C.2    19  LYS19       0.2617
     48  O        -20.2510   38.5770    4.4700 O.2    19  LYS19      -0.2715
     49  CB       -18.5890   36.2830    6.3100 C.3    19  LYS19       0.0311
     50  CG       -18.2310   35.8470    4.8880 C.3    19  LYS19       0.0038
     51  CD       -17.9850   34.3340    4.7610 C.3    19  LYS19       0.0206
     52  CE       -16.7790   33.8670    5.5650 C.3    19  LYS19       0.1093
     53  NZ       -16.5430   32.3940    5.4000 N.3    19  LYS19      -0.1314
     54  N        -21.4230   37.2930    5.9040 N.am   20  SER20      -0.1936
     55  CA       -22.6760   37.3610    5.1350 C.3    20  SER20       0.2055
     56  C        -23.2070   38.7780    4.9750 C.2    20  SER20       0.2643
     57  O        -23.5770   39.2050    3.8770 O.2    20  SER20      -0.2714
     58  CB       -23.7500   36.4970    5.8010 C.3    20  SER20       0.2130
     59  OG       -23.3880   35.1270    5.7610 O.3    20  SER20      -0.2179
     60  N        -23.2410   39.5090    6.0800 N.am   21  THR21      -0.1950
     61  CA       -23.7270   40.8730    6.0570 C.3    21  THR21       0.1897
     62  C        -22.9220   41.7170    5.0680 C.2    21  THR21       0.2313
     63  O        -23.4890   42.5030    4.3110 O.2    21  THR21      -0.2863
     64  CB       -23.6390   41.5020    7.4570 C.3    21  THR21       0.1794
     65  OG1      -24.3170   40.6580    8.3990 O.3    21  THR21      -0.2208
     66  CG2      -24.2850   42.8850    7.4590 C.3    21  THR21       0.0378
     67  N        -16.7440   28.2270    6.5350 N.3    63  GLY63      -0.1225
     68  CA       -16.1800   28.8660    7.7110 C.3    63  GLY63       0.1811
     69  C        -15.7420   27.9410    8.8400 C.2    63  GLY63       0.2280
     70  O        -15.0880   28.3890    9.7810 O.2    63  GLY63      -0.2866
     71  N        -14.7480   45.2300   10.9640 N.3   114  ASN114     -0.1225
     72  CA       -16.1960   45.3800   10.9500 C.3   114  ASN114      0.1785
     73  C        -16.8090   45.7300   12.3150 C.2   114  ASN114      0.2597
     74  O        -16.1350   45.6860   13.3470 O.2   114  ASN114     -0.2718
     75  CB       -16.8100   44.0860   10.4050 C.3   114  ASN114      0.1169
     76  CG       -18.2710   44.2350   10.0420 C.2   114  ASN114      0.2627
     77  OD1      -18.6920   45.2700    9.5200 O.2   114  ASN114     -0.2716
     78  ND2      -19.0490   43.1920   10.2940 N.am  114  ASN114     -0.0877
     79  N        -18.0880   46.0990   12.3000 N.am  115  LYS115     -0.1980
     80  CA       -18.8250   46.4430   13.5150 C.3   115  LYS115      0.1596
     81  C        -18.2570   47.6310   14.2820 C.2   115  LYS115      0.2287
     82  O        -18.2920   47.6500   15.5110 O.2   115  LYS115     -0.2864
     83  CB       -18.8850   45.2360   14.4560 C.3   115  LYS115      0.0298
     84  CG       -19.3700   43.9570   13.8040 C.3   115  LYS115      0.0038
     85  CD       -19.8010   42.9430   14.8500 C.3   115  LYS115      0.0206
     86  CE       -20.3910   41.7060   14.2050 C.3   115  LYS115      0.1093
     87  NZ       -20.7120   40.6800   15.2340 N.3   115  LYS115     -0.1314
     88  N        -19.5210   50.2950   14.5500 N.3   117  ASP117     -0.1225
     89  CA       -20.6630   50.9900   15.1220 C.3   117  ASP117      0.1805
     90  C        -20.9250   50.5720   16.5730 C.2   117  ASP117      0.2597
     91  O        -21.4500   51.3570   17.3630 O.2   117  ASP117     -0.2718
     92  CB       -21.9160   50.7240   14.2790 C.3   117  ASP117      0.1424
     93  CG       -22.2310   49.2440   14.1530 C.2   117  ASP117      0.3668
     94  OD1      -21.4870   48.5330   13.4390 O.co2 117  ASP117     -0.2456
     95  OD2      -23.2180   48.7930   14.7760 O.co2 117  ASP117     -0.2456
     96  N        -20.5570   49.3410   16.9220 N.am  118  LEU118     -0.1979
     97  CA       -20.7700   48.8360   18.2770 C.3   118  LEU118      0.1596
     98  C        -20.0360   49.6330   19.3520 C.2   118  LEU118      0.2287
     99  O        -18.8880   50.0450   19.1700 O.2   118  LEU118     -0.2864
    100  CB       -20.3540   47.3660   18.3770 C.3   118  LEU118      0.0297
    101  CG       -21.2100   46.3190   17.6590 C.3   118  LEU118      0.0022
    102  CD1      -20.6200   44.9400   17.9100 C.3   118  LEU118      0.0001
    103  CD2      -22.6440   46.3740   18.1550 C.3   118  LEU118      0.0001
    104  N        -18.7190   49.1690    8.6610 N.3   145  SER145     -0.1202
    105  CA       -19.8790   48.6970    9.3860 C.3   145  SER145      0.2020
    106  C        -20.8210   48.1020    8.3530 C.2   145  SER145      0.2619
    107  O        -21.5570   48.8270    7.6850 O.2   145  SER145     -0.2717
    108  CB       -20.5640   49.8500   10.1140 C.3   145  SER145      0.2103
    109  OG       -21.7080   49.3870   10.8060 O.3   145  SER145     -0.2182
    110  N        -20.7750   46.7810    8.2110 N.am  146  ALA146     -0.1965
    111  CA       -21.6240   46.0870    7.2540 C.3   146  ALA146      0.1728
    112  C        -23.0970   46.2310    7.6260 C.2   146  ALA146      0.2616
    113  O        -23.9750   46.0990    6.7760 O.2   146  ALA146     -0.2715
    114  CB       -21.2390   44.6130    7.1940 C.3   146  ALA146      0.0334
    115  N        -23.3640   46.5010    8.8990 N.am  147  LYS147     -0.1977
    116  CA       -24.7340   46.6570    9.3740 C.3   147  LYS147      0.1596
    117  C        -25.3430   47.9820    8.9270 C.2   147  LYS147      0.2287
    118  O        -26.5570   48.0850    8.7500 O.2   147  LYS147     -0.2864
    119  CB       -24.7680   46.5710   10.8990 C.3   147  LYS147      0.0298
    120  CG       -26.0700   47.0270   11.5370 C.3   147  LYS147      0.0038
    121  CD       -25.8250   47.3880   12.9940 C.3   147  LYS147      0.0206
    122  CE       -27.0120   48.0910   13.6270 C.3   147  LYS147      0.1093
    123  NZ       -26.6390   48.6670   14.9530 N.3   147  LYS147     -0.1314
@<TRIPOS>BOND
     1    57    56    2
     2    63    62    2
     3    48    47    2
     4    51    50    1
     5    51    52    1
     6    50    49    1
     7    56    55    1
     8    56    60   am
     9    62    61    1
    10    55    58    1
    11    55    54    1
    12    53    52    1
    13    47    54   am
    14    47    46    1
    15    59    58    1
    16    61    60    1
    17    61    64    1
    18    49    46    1
    19    46    45    1
    20    67    68    1
    21   113   112    2
    22   114   111    1
    23    44    43    2
    24   111   112    1
    25   111   110    1
    26    64    66    1
    27    64    65    1
    28     1     2    1
    29   112   115   am
    30   107   106    2
    31    68    69    1
    32    45    43   am
    33    43    42    1
    34   110   106   am
    35   106   105    1
    36   104   105    1
    37   118   117    2
    38     5     2    1
    39     2     3    1
    40    69    70    2
    41   115   116    1
    42   117   116    1
    43   116   119    1
    44   105   108    1
    45     4     3    2
    46    77    76    2
    47    42    41    1
    48     3     6   am
    49    76    78   am
    50    76    75    1
    51   108   109    1
    52    75    72    1
    53    41    33   am
    54   119   120    1
    55    72    71    1
    56    72    73    1
    57     6     7    1
    58    34    33    2
    59    33    32    1
    60   120   121    1
    61     9     8    2
    62    22    20    1
    63     8     7    1
    64     8    16   am
    65     7    10    1
    66    35    32    1
    67    35    36    1
    68    79    73   am
    69    79    80    1
    70    73    74    2
    71    32    31    1
    72    16    17    1
    73    17    20    1
    74    17    18    1
    75    31    25   am
    76    23    18   am
    77    23    24    1
    78   121   122    1
    79    20    21    1
    80    25    24    1
    81    25    26    2
    82    18    19    2
    83    94    93   ar
    84    10    11    1
    85    24    27    1
    86    36    37   ar
    87    36    38   ar
    88    80    81    1
    89    80    83    1
    90   122   123    1
    91    37    39   ar
    92    84    83    1
    93    84    85    1
    94    93    92    1
    95    93    95   ar
    96    86    85    1
    97    86    87    1
    98    92    89    1
    99    81    82    2
   100    88    89    1
   101    11    13   ar
   102    11    12   ar
   103    38    40   ar
   104    39    40   ar
   105    13    15   ar
   106    27    28    1
   107    89    90    1
   108    29    28   ar
   109    28    30   ar
   110    12    14   ar
   111    15    14   ar
   112    90    96   am
   113    90    91    2
   114    96    97    1
   115   101   102    1
   116   101   103    1
   117   101   100    1
   118    97   100    1
   119    97    98    1
   120    99    98    2
