@<TRIPOS>MOLECULE
tmp/2ywgA00.pdb
 123 120 0 0 0
SMALL
GASTEIGER

@<TRIPOS>ATOM
      1  N        -13.8210  -35.5160   -6.7740 N.3    12  ALA12      -0.1231
      2  CA       -14.1690  -36.0240   -8.0970 C.3    12  ALA12       0.1694
      3  C        -14.3850  -34.9340   -9.1410 C.2    12  ALA12       0.2592
      4  O        -14.8480  -33.8330   -8.8280 O.2    12  ALA12      -0.2718
      5  CB       -15.4180  -36.9020   -8.0040 C.3    12  ALA12       0.0304
      6  N        -14.0350  -35.2470  -10.3840 N.am   13  HIS13      -0.1962
      7  CA       -14.2290  -34.3130  -11.4810 C.3    13  HIS13       0.1787
      8  C        -15.7440  -34.2760  -11.7300 C.2    13  HIS13       0.2620
      9  O        -16.4730  -35.1600  -11.2660 O.2    13  HIS13      -0.2715
     10  CB       -13.4800  -34.8170  -12.7180 C.3    13  HIS13       0.0785
     11  CG       -13.5370  -33.8880  -13.8910 C.ar   13  HIS13       0.0821
     12  ND1      -14.6220  -33.8220  -14.7390 N.ar   13  HIS13      -0.2267
     13  CD2      -12.6380  -32.9900  -14.3600 C.ar   13  HIS13       0.1154
     14  CE1      -14.3870  -32.9280  -15.6820 C.ar   13  HIS13       0.1986
     15  NE2      -13.1900  -32.4090  -15.4750 N.ar   13  HIS13      -0.2212
     16  N        -16.2120  -33.2570  -12.4460 N.am   14  VAL14      -0.1963
     17  CA       -17.6370  -33.0960  -12.7450 C.3    14  VAL14       0.1727
     18  C        -18.3450  -34.3450  -13.2700 C.2    14  VAL14       0.2616
     19  O        -17.9150  -34.9490  -14.2550 O.2    14  VAL14      -0.2715
     20  CB       -17.8560  -31.9770  -13.7670 C.3    14  VAL14       0.0290
     21  CG1      -19.3170  -31.9240  -14.1630 C.3    14  VAL14       0.0023
     22  CG2      -17.4080  -30.6430  -13.1770 C.3    14  VAL14       0.0023
     23  N        -19.4450  -34.7010  -12.6060 N.am   15  ASP15      -0.1957
     24  CA       -20.2780  -35.8660  -12.9390 C.3    15  ASP15       0.1840
     25  C        -19.6310  -37.2540  -12.8980 C.2    15  ASP15       0.2622
     26  O        -20.1170  -38.1640  -13.5720 O.2    15  ASP15      -0.2715
     27  CB       -20.9370  -35.6920  -14.3100 C.3    15  ASP15       0.1450
     28  CG       -22.0040  -34.6280  -14.3110 C.2    15  ASP15       0.3671
     29  OD1      -22.7610  -34.5480  -13.3240 O.co2  15  ASP15      -0.2456
     30  OD2      -22.1010  -33.8780  -15.3030 O.co2  15  ASP15      -0.2456
     31  N        -18.5570  -37.4340  -12.1250 N.am   16  HIS16      -0.1959
     32  CA       -17.9110  -38.7470  -12.0440 C.3    16  HIS16       0.1787
     33  C        -18.5380  -39.6430  -10.9650 C.2    16  HIS16       0.2621
     34  O        -18.1260  -40.7910  -10.7820 O.2    16  HIS16      -0.2715
     35  CB       -16.3940  -38.6080  -11.8220 C.3    16  HIS16       0.0785
     36  CG       -15.6160  -38.3420  -13.0810 C.ar   16  HIS16       0.0821
     37  ND1      -14.2570  -38.5660  -13.1790 N.ar   16  HIS16      -0.2267
     38  CD2      -16.0050  -37.8750  -14.2930 C.ar   16  HIS16       0.1154
     39  CE1      -13.8450  -38.2540  -14.3970 C.ar   16  HIS16       0.1986
     40  NE2      -14.8860  -37.8320  -15.0920 N.ar   16  HIS16      -0.2212
     41  N        -19.5390  -39.1170  -10.2610 N.am   17  GLY17      -0.1940
     42  CA       -20.2290  -39.8940   -9.2410 C.3    17  GLY17       0.2014
     43  C        -20.0840  -39.4650   -7.7910 C.2    17  GLY17       0.2639
     44  O        -20.5610  -40.1600   -6.8980 O.2    17  GLY17      -0.2714
     45  N        -19.4430  -38.3230   -7.5560 N.am   18  LYS18      -0.1963
     46  CA       -19.2090  -37.8010   -6.2040 C.3    18  LYS18       0.1728
     47  C        -20.4060  -37.8800   -5.2490 C.2    18  LYS18       0.2617
     48  O        -20.3010  -38.4940   -4.1900 O.2    18  LYS18      -0.2715
     49  CB       -18.7080  -36.3480   -6.2970 C.3    18  LYS18       0.0311
     50  CG       -18.0550  -35.7770   -5.0280 C.3    18  LYS18       0.0038
     51  CD       -19.0660  -35.3500   -3.9630 C.3    18  LYS18       0.0206
     52  CE       -19.9290  -34.1690   -4.4260 C.3    18  LYS18       0.1093
     53  NZ       -20.8440  -33.6720   -3.3460 N.3    18  LYS18      -0.1314
     54  N        -21.5300  -37.2620   -5.6250 N.am   19  SER19      -0.1936
     55  CA       -22.7520  -37.2340   -4.8050 C.3    19  SER19       0.2055
     56  C        -23.3240  -38.6270   -4.5480 C.2    19  SER19       0.2643
     57  O        -23.6590  -38.9800   -3.4160 O.2    19  SER19      -0.2714
     58  CB       -23.8210  -36.3690   -5.4820 C.3    19  SER19       0.2130
     59  OG       -23.3560  -35.0500   -5.7400 O.3    19  SER19      -0.2179
     60  N        -23.4470  -39.4110   -5.6090 N.am   20  THR20      -0.1950
     61  CA       -23.9530  -40.7640   -5.4900 C.3    20  THR20       0.1897
     62  C        -23.1800  -41.5030   -4.3960 C.2    20  THR20       0.2313
     63  O        -23.7050  -41.7390   -3.3130 O.2    20  THR20      -0.2863
     64  CB       -23.7870  -41.5270   -6.8130 C.3    20  THR20       0.1794
     65  OG1      -24.4900  -40.8350   -7.8520 O.3    20  THR20      -0.2208
     66  CG2      -24.3320  -42.9470   -6.6850 C.3    20  THR20       0.0378
     67  N        -16.7460  -28.1820   -6.3500 N.3    56  GLY56      -0.1225
     68  CA       -16.1720  -28.7770   -7.5430 C.3    56  GLY56       0.1811
     69  C        -15.5300  -27.8070   -8.5190 C.2    56  GLY56       0.2280
     70  O        -14.4230  -28.0440   -9.0090 O.2    56  GLY56      -0.2866
     71  N        -14.8870  -45.2120  -10.8260 N.3   107  ASN107     -0.1225
     72  CA       -16.3180  -45.3960  -10.7400 C.3   107  ASN107      0.1785
     73  C        -16.9810  -45.5930  -12.0940 C.2   107  ASN107      0.2597
     74  O        -16.4200  -45.2450  -13.1290 O.2   107  ASN107     -0.2718
     75  CB       -16.9270  -44.1960  -10.0180 C.3   107  ASN107      0.1169
     76  CG       -18.4190  -44.3400   -9.7960 C.2   107  ASN107      0.2627
     77  OD1      -18.9000  -45.3700   -9.2930 O.2   107  ASN107     -0.2716
     78  ND2      -19.1670  -43.3000  -10.1600 N.am  107  ASN107     -0.0877
     79  N        -18.1840  -46.1610  -12.0680 N.am  108  LYS108     -0.1980
     80  CA       -18.9580  -46.4260  -13.2740 C.3   108  LYS108      0.1596
     81  C        -18.3510  -47.5640  -14.0860 C.2   108  LYS108      0.2287
     82  O        -18.4880  -47.5940  -15.3110 O.2   108  LYS108     -0.2864
     83  CB       -19.0280  -45.1740  -14.1480 C.3   108  LYS108      0.0298
     84  CG       -19.7090  -43.9940  -13.5060 C.3   108  LYS108      0.0038
     85  CD       -19.8030  -42.8510  -14.4890 C.3   108  LYS108      0.0206
     86  CE       -20.5240  -41.6580  -13.8980 C.3   108  LYS108      0.1093
     87  NZ       -20.3680  -40.4750  -14.7870 N.3   108  LYS108     -0.1314
     88  N        -19.3710  -50.2760  -14.3600 N.3   110  ASP110     -0.1225
     89  CA       -20.4860  -51.0640  -14.8620 C.3   110  ASP110      0.1805
     90  C        -20.8090  -50.6320  -16.3040 C.2   110  ASP110      0.2597
     91  O        -21.4940  -51.3360  -17.0490 O.2   110  ASP110     -0.2718
     92  CB       -21.7110  -50.8160  -13.9960 C.3   110  ASP110      0.1424
     93  CG       -22.1950  -49.3830  -14.0930 C.2   110  ASP110      0.3668
     94  OD1      -21.6730  -48.5310  -13.3380 O.co2 110  ASP110     -0.2456
     95  OD2      -23.0770  -49.1080  -14.9430 O.co2 110  ASP110     -0.2456
     96  N        -20.3190  -49.4590  -16.6860 N.am  111  LEU111     -0.1979
     97  CA       -20.5670  -48.9320  -18.0160 C.3   111  LEU111      0.1596
     98  C        -19.8990  -49.7220  -19.1230 C.2   111  LEU111      0.2287
     99  O        -18.7970  -50.2430  -18.9520 O.2   111  LEU111     -0.2864
    100  CB       -20.1030  -47.4850  -18.1000 C.3   111  LEU111      0.0297
    101  CG       -20.9800  -46.4900  -17.3550 C.3   111  LEU111      0.0022
    102  CD1      -20.4340  -45.0870  -17.5810 C.3   111  LEU111      0.0001
    103  CD2      -22.4180  -46.6110  -17.8450 C.3   111  LEU111      0.0001
    104  N        -18.7020  -49.4370   -8.5350 N.3   138  SER138     -0.1202
    105  CA       -19.8800  -48.9220   -9.1940 C.3   138  SER138      0.2020
    106  C        -20.8090  -48.4220   -8.0990 C.2   138  SER138      0.2619
    107  O        -21.2660  -49.1940   -7.2580 O.2   138  SER138     -0.2717
    108  CB       -20.5710  -50.0160  -10.0000 C.3   138  SER138      0.2103
    109  OG       -21.7800  -49.5280  -10.5510 O.3   138  SER138     -0.2182
    110  N        -21.0610  -47.1190   -8.0980 N.am  139  ALA139     -0.1965
    111  CA       -21.9450  -46.5200   -7.1120 C.3   139  ALA139      0.1728
    112  C        -23.3950  -46.7890   -7.5020 C.2   139  ALA139      0.2616
    113  O        -24.2170  -47.1230   -6.6550 O.2   139  ALA139     -0.2715
    114  CB       -21.6900  -45.0230   -7.0240 C.3   139  ALA139      0.0334
    115  N        -23.7030  -46.6540   -8.7890 N.am  140  LYS140     -0.1977
    116  CA       -25.0600  -46.8920   -9.2770 C.3   140  LYS140      0.1596
    117  C        -25.5910  -48.1990   -8.6830 C.2   140  LYS140      0.2287
    118  O        -26.7990  -48.3660   -8.4900 O.2   140  LYS140     -0.2864
    119  CB       -25.0680  -46.9700  -10.8080 C.3   140  LYS140      0.0298
    120  CG       -26.4380  -46.7420  -11.4360 C.3   140  LYS140      0.0038
    121  CD       -26.4180  -46.9160  -12.9550 C.3   140  LYS140      0.0206
    122  CE       -26.2280  -48.3740  -13.3470 C.3   140  LYS140      0.1093
    123  NZ       -26.2440  -48.5600  -14.8240 N.3   140  LYS140     -0.1314
@<TRIPOS>BOND
     1    98    99    2
     2    98    97    1
     3   100    97    1
     4   100   101    1
     5    97    96    1
     6   103   101    1
     7   102   101    1
     8    91    90    2
     9    96    90   am
    10    90    89    1
    11    14    15   ar
    12    14    12   ar
    13    15    13   ar
    14    82    81    2
    15    30    28   ar
    16    40    39   ar
    17    40    38   ar
    18    95    93   ar
    19    89    88    1
    20    89    92    1
    21   123   122    1
    22    87    86    1
    23    12    11   ar
    24    85    86    1
    25    85    84    1
    26    39    37   ar
    27    13    11   ar
    28    28    27    1
    29    28    29   ar
    30    27    24    1
    31    38    36   ar
    32    19    18    2
    33    21    20    1
    34    83    84    1
    35    83    80    1
    36    93    92    1
    37    93    94   ar
    38    81    80    1
    39    11    10    1
    40    20    22    1
    41    20    17    1
    42    26    25    2
    43   122   121    1
    44    80    79    1
    45    18    17    1
    46    18    23   am
    47    37    36   ar
    48    74    73    2
    49    36    35    1
    50   121   120    1
    51    24    25    1
    52    24    23    1
    53    25    31   am
    54    17    16    1
    55    10     7    1
    56    16     8   am
    57    31    32    1
    58    73    79   am
    59    73    72    1
    60    32    35    1
    61    32    33    1
    62     8     7    1
    63     8     9    2
    64     7     6    1
    65   120   119    1
    66    33    34    2
    67    33    41   am
    68    71    72    1
    69   119   116    1
    70    72    75    1
    71   109   108    1
    72     6     3   am
    73    41    42    1
    74    78    76   am
    75    75    76    1
    76   108   105    1
    77    76    77    2
    78   116   115    1
    79   116   117    1
    80    42    43    1
    81   105   104    1
    82   105   106    1
    83     3     4    2
    84     3     2    1
    85    70    69    2
    86   115   112   am
    87   117   118    2
    88    69    68    1
    89   106   110   am
    90   106   107    2
    91   110   111    1
    92     2     5    1
    93     2     1    1
    94    65    64    1
    95    43    45   am
    96    43    44    2
    97    45    46    1
    98    68    67    1
    99   112   111    1
   100   112   113    2
   101   111   114    1
   102    64    66    1
   103    64    61    1
   104    49    46    1
   105    49    50    1
   106    46    47    1
   107    59    58    1
   108    54    47   am
   109    54    55    1
   110    60    61    1
   111    60    56   am
   112    61    62    1
   113    58    55    1
   114    47    48    2
   115    50    51    1
   116    55    56    1
   117    56    57    2
   118    52    51    1
   119    52    53    1
   120    62    63    2
