@<TRIPOS>MOLECULE
tmp/2ywhA00.pdb
 119 117 0 0 0
SMALL
GASTEIGER

@<TRIPOS>ATOM
      1  N         13.6280   35.2150   -7.1730 N.3    13  ALA13      -0.1231
      2  CA        13.8030   35.7650   -8.5060 C.3    13  ALA13       0.1694
      3  C         14.2050   34.7010   -9.5050 C.2    13  ALA13       0.2592
      4  O         14.7900   33.6780   -9.1430 O.2    13  ALA13      -0.2718
      5  CB        14.8570   36.8720   -8.4750 C.3    13  ALA13       0.0304
      6  N         13.8640   34.9440  -10.7630 N.am   14  HIS14      -0.1962
      7  CA        14.2270   34.0400  -11.8370 C.3    14  HIS14       0.1787
      8  C         15.7560   34.1560  -11.8490 C.2    14  HIS14       0.2620
      9  O         16.2930   35.2410  -11.6010 O.2    14  HIS14      -0.2715
     10  CB        13.6070   34.5450  -13.1410 C.3    14  HIS14       0.0785
     11  CG        13.7470   33.5990  -14.2900 C.ar   14  HIS14       0.0821
     12  ND1       14.8440   33.5960  -15.1240 N.ar   14  HIS14      -0.2267
     13  CD2       12.9280   32.6200  -14.7410 C.ar   14  HIS14       0.1154
     14  CE1       14.6930   32.6580  -16.0430 C.ar   14  HIS14       0.1986
     15  NE2       13.5390   32.0510  -15.8320 N.ar   14  HIS14      -0.2212
     16  N         16.4550   33.0530  -12.1020 N.am   15  VAL15      -0.1963
     17  CA        17.9180   33.0670  -12.0970 C.3    15  VAL15       0.1727
     18  C         18.5200   34.1090  -13.0390 C.2    15  VAL15       0.2616
     19  O         18.0960   34.2320  -14.1840 O.2    15  VAL15      -0.2715
     20  CB        18.4870   31.6790  -12.4540 C.3    15  VAL15       0.0290
     21  CG1       20.0030   31.6610  -12.2300 C.3    15  VAL15       0.0023
     22  CG2       17.8190   30.6120  -11.5980 C.3    15  VAL15       0.0023
     23  N         19.5060   34.8510  -12.5230 N.am   16  ASP16      -0.1957
     24  CA        20.2280   35.9180  -13.2370 C.3    16  ASP16       0.1840
     25  C         19.6830   37.3280  -12.9910 C.2    16  ASP16       0.2622
     26  O         20.3300   38.3160  -13.3510 O.2    16  ASP16      -0.2715
     27  CB        20.2360   35.6670  -14.7470 C.3    16  ASP16       0.1450
     28  CG        21.4010   34.8190  -15.1930 C.2    16  ASP16       0.3671
     29  OD1       21.6910   33.8020  -14.5320 O.co2  16  ASP16      -0.2456
     30  OD2       22.0200   35.1670  -16.2180 O.co2  16  ASP16      -0.2456
     31  N         18.5070   37.4330  -12.3740 N.am   17  HIS17      -0.1959
     32  CA        17.9130   38.7460  -12.1470 C.3    17  HIS17       0.1787
     33  C         18.5580   39.6070  -11.0580 C.2    17  HIS17       0.2621
     34  O         18.2850   40.8060  -10.9680 O.2    17  HIS17      -0.2715
     35  CB        16.3990   38.6050  -11.9330 C.3    17  HIS17       0.0785
     36  CG        15.6540   38.2560  -13.1870 C.ar   17  HIS17       0.0821
     37  ND1       14.3450   38.6300  -13.4090 N.ar   17  HIS17      -0.2267
     38  CD2       16.0460   37.5890  -14.3000 C.ar   17  HIS17       0.1154
     39  CE1       13.9650   38.2130  -14.6060 C.ar   17  HIS17       0.1986
     40  NE2       14.9790   37.5780  -15.1670 N.ar   17  HIS17      -0.2212
     41  N         19.4250   39.0070  -10.2480 N.am   18  GLY18      -0.1940
     42  CA        20.1110   39.7760   -9.2250 C.3    18  GLY18       0.2014
     43  C         19.8470   39.4480   -7.7680 C.2    18  GLY18       0.2639
     44  O         20.0330   40.3120   -6.9100 O.2    18  GLY18      -0.2714
     45  N         19.4200   38.2210   -7.4760 N.am   19  LYS19      -0.1963
     46  CA        19.1470   37.8290   -6.0960 C.3    19  LYS19       0.1728
     47  C         20.3880   37.9270   -5.2180 C.2    19  LYS19       0.2617
     48  O         20.3730   38.6010   -4.1920 O.2    19  LYS19      -0.2715
     49  CB        18.5790   36.4020   -6.0280 C.3    19  LYS19       0.0311
     50  CG        18.5020   35.8480   -4.6030 C.3    19  LYS19       0.0038
     51  CD        17.3020   34.9170   -4.3690 C.3    19  LYS19       0.0206
     52  CE        17.3600   33.6450   -5.2050 C.3    19  LYS19       0.1093
     53  NZ        16.2610   32.6800   -4.8710 N.3    19  LYS19      -0.1314
     54  N         21.4620   37.2600   -5.6250 N.am   20  SER20      -0.1936
     55  CA        22.7060   37.2780   -4.8590 C.3    20  SER20       0.2055
     56  C         23.2450   38.6960   -4.7140 C.2    20  SER20       0.2643
     57  O         23.5530   39.1460   -3.6110 O.2    20  SER20      -0.2714
     58  CB        23.7560   36.3950   -5.5390 C.3    20  SER20       0.2130
     59  OG        23.2990   35.0550   -5.6590 O.3    20  SER20      -0.2179
     60  N         23.3500   39.4030   -5.8330 N.am   21  THR21      -0.1950
     61  CA        23.8540   40.7640   -5.8120 C.3    21  THR21       0.1897
     62  C         23.1210   41.5940   -4.7550 C.2    21  THR21       0.2313
     63  O         23.7430   42.3140   -3.9790 O.2    21  THR21      -0.2863
     64  CB        23.6800   41.4490   -7.1920 C.3    21  THR21       0.1794
     65  OG1       24.2590   40.6300   -8.2180 O.3    21  THR21      -0.2208
     66  CG2       24.3710   42.8120   -7.1990 C.3    21  THR21       0.0378
     67  N         14.8920   45.2560  -10.7440 N.3   110  ASN110     -0.1225
     68  CA        16.3300   45.4160  -10.7080 C.3   110  ASN110      0.1785
     69  C         16.9560   45.7250  -12.0740 C.2   110  ASN110      0.2597
     70  O         16.3080   45.5920  -13.1210 O.2   110  ASN110     -0.2718
     71  CB        16.9360   44.1440  -10.1240 C.3   110  ASN110      0.1169
     72  CG        18.3810   44.3060   -9.7750 C.2   110  ASN110      0.2627
     73  OD1       18.7770   45.3190   -9.1960 O.2   110  ASN110     -0.2716
     74  ND2       19.1870   43.3020  -10.1090 N.am  110  ASN110     -0.0877
     75  N         18.2200   46.1450  -12.0440 N.am  111  LYS111     -0.1980
     76  CA        18.9840   46.4690  -13.2510 C.3   111  LYS111      0.1596
     77  C         18.4170   47.6410  -14.0480 C.2   111  LYS111      0.2287
     78  O         18.5110   47.6550  -15.2760 O.2   111  LYS111     -0.2864
     79  CB        19.0590   45.2460  -14.1680 C.3   111  LYS111      0.0298
     80  CG        19.5350   43.9890  -13.4880 C.3   111  LYS111      0.0038
     81  CD        19.8150   42.9030  -14.5020 C.3   111  LYS111      0.0206
     82  CE        20.5560   41.7380  -13.8760 C.3   111  LYS111      0.1093
     83  NZ        20.8270   40.6880  -14.8930 N.3   111  LYS111     -0.1314
     84  N         19.5970   50.3270  -14.3280 N.3   113  ASP113     -0.1225
     85  CA        20.7510   51.0550  -14.8360 C.3   113  ASP113      0.1805
     86  C         21.0910   50.6140  -16.2620 C.2   113  ASP113      0.2597
     87  O         21.7610   51.3330  -17.0040 O.2   113  ASP113     -0.2718
     88  CB        21.9590   50.8040  -13.9340 C.3   113  ASP113      0.1424
     89  CG        22.3050   49.3270  -13.8250 C.2   113  ASP113      0.3668
     90  OD1       21.5700   48.5930  -13.1260 O.co2 113  ASP113     -0.2456
     91  OD2       23.3060   48.9000  -14.4490 O.co2 113  ASP113     -0.2456
     92  N         20.6330   49.4250  -16.6370 N.am  114  LEU114     -0.1979
     93  CA        20.9050   48.8950  -17.9670 C.3   114  LEU114      0.1596
     94  C         20.1640   49.6370  -19.0740 C.2   114  LEU114      0.2287
     95  O         19.0140   50.0450  -18.9030 O.2   114  LEU114     -0.2864
     96  CB        20.5660   47.4030  -18.0120 C.3   114  LEU114      0.0297
     97  CG        21.6490   46.4430  -17.5050 C.3   114  LEU114      0.0022
     98  CD1       22.2010   45.6510  -18.6720 C.3   114  LEU114      0.0001
     99  CD2       22.7620   47.2130  -16.8200 C.3   114  LEU114      0.0001
    100  N         18.8580   49.1160   -8.3190 N.3   141  SER141     -0.1202
    101  CA        20.0480   48.6610   -9.0040 C.3   141  SER141      0.2020
    102  C         20.9540   48.1100   -7.9120 C.2   141  SER141      0.2619
    103  O         21.5900   48.8650   -7.1770 O.2   141  SER141     -0.2717
    104  CB        20.7190   49.8330   -9.7240 C.3   141  SER141      0.2103
    105  OG        21.8270   49.3980  -10.4880 O.3   141  SER141     -0.2182
    106  N         20.9860   46.7900   -7.7850 N.am  142  ALA142     -0.1965
    107  CA        21.8160   46.1520   -6.7750 C.3   142  ALA142      0.1728
    108  C         23.2870   46.2810   -7.1630 C.2   142  ALA142      0.2616
    109  O         24.1800   46.1020   -6.3350 O.2   142  ALA142     -0.2715
    110  CB        21.4290   44.6800   -6.6290 C.3   142  ALA142      0.0334
    111  N         23.5300   46.5890   -8.4310 N.am  143  LYS143     -0.1977
    112  CA        24.8890   46.7520   -8.9280 C.3   143  LYS143      0.1596
    113  C         25.4390   48.1070   -8.4880 C.2   143  LYS143      0.2287
    114  O         26.6510   48.3060   -8.4210 O.2   143  LYS143     -0.2864
    115  CB        24.8930   46.6670  -10.4560 C.3   143  LYS143      0.0298
    116  CG        26.1920   47.1040  -11.1100 C.3   143  LYS143      0.0038
    117  CD        25.9820   47.3360  -12.5960 C.3   143  LYS143      0.0206
    118  CE        27.2180   47.9210  -13.2610 C.3   143  LYS143      0.1093
    119  NZ        26.9610   48.2900  -14.6860 N.3   143  LYS143     -0.1314
@<TRIPOS>BOND
     1    94    95    2
     2    94    93    1
     3    98    97    1
     4    96    93    1
     5    96    97    1
     6    93    92    1
     7    97    99    1
     8    87    86    2
     9    92    86   am
    10    86    85    1
    11    30    28   ar
    12    14    15   ar
    13    14    12   ar
    14    15    13   ar
    15    78    77    2
    16    28    27    1
    17    28    29   ar
    18    40    39   ar
    19    40    38   ar
    20    12    11   ar
    21    83    82    1
    22    85    84    1
    23    85    88    1
    24    27    24    1
    25    13    11   ar
    26   119   118    1
    27    39    37   ar
    28    81    82    1
    29    81    80    1
    30    91    89   ar
    31    38    36   ar
    32    11    10    1
    33    19    18    2
    34    79    80    1
    35    79    76    1
    36    77    76    1
    37    88    89    1
    38    89    90   ar
    39    37    36   ar
    40    26    25    2
    41   118   117    1
    42    76    75    1
    43    24    25    1
    44    24    23    1
    45    36    35    1
    46    10     7    1
    47    70    69    2
    48    18    23   am
    49    18    17    1
    50    25    31   am
    51   117   116    1
    52    20    21    1
    53    20    17    1
    54    20    22    1
    55    31    32    1
    56    32    35    1
    57    32    33    1
    58    16    17    1
    59    16     8   am
    60    69    75   am
    61    69    68    1
    62     8     7    1
    63     8     9    2
    64     7     6    1
    65   116   115    1
    66    33    34    2
    67    33    41   am
    68     6     3   am
    69    67    68    1
    70    68    71    1
    71   105   104    1
    72   115   112    1
    73    41    42    1
    74    71    72    1
    75    74    72   am
    76    72    73    2
    77   104   101    1
    78     3     4    2
    79     3     2    1
    80    42    43    1
    81   101   100    1
    82   101   102    1
    83   112   113    1
    84   112   111    1
    85     2     5    1
    86     2     1    1
    87   113   114    2
    88   111   108   am
    89    65    64    1
    90   102   106   am
    91   102   103    2
    92   106   107    1
    93    43    45   am
    94    43    44    2
    95    45    46    1
    96    66    64    1
    97    64    61    1
    98   108   107    1
    99   108   109    2
   100   107   110    1
   101    46    49    1
   102    46    47    1
   103    49    50    1
   104    60    61    1
   105    60    56   am
   106    61    62    1
   107    59    58    1
   108    54    47   am
   109    54    55    1
   110    58    55    1
   111    47    48    2
   112    52    53    1
   113    52    51    1
   114    55    56    1
   115    62    63    2
   116    56    57    2
   117    50    51    1
