@<TRIPOS>MOLECULE
tmp/2ywvA00.pdb
 155 145 0 0 0
SMALL
GASTEIGER

@<TRIPOS>ATOM
      1  N         16.5140   -1.5020    8.3950 N.3     9  TYR9       -0.1241
      2  CA        15.3050   -1.2500    9.1620 C.3     9  TYR9        0.1605
      3  C         14.2920   -2.3770    9.0180 C.2     9  TYR9        0.2264
      4  O         14.1400   -2.9540    7.9430 O.2     9  TYR9       -0.2867
      5  CB        14.6740    0.0540    8.6690 C.3     9  TYR9        0.0534
      6  CG        13.3610    0.4170    9.3120 C.ar    9  TYR9       -0.0201
      7  CD1       13.3230    1.0900   10.5320 C.ar    9  TYR9       -0.0009
      8  CD2       12.1520    0.1170    8.6860 C.ar    9  TYR9       -0.0009
      9  CE1       12.1150    1.4610   11.1100 C.ar    9  TYR9        0.0417
     10  CE2       10.9380    0.4820    9.2570 C.ar    9  TYR9        0.0417
     11  CZ        10.9290    1.1560   10.4680 C.ar    9  TYR9        0.1957
     12  OH         9.7350    1.5360   11.0320 O.3     9  TYR9       -0.2866
     13  N         10.2680   -3.0550    9.7700 N.3    11  GLY11      -0.1210
     14  CA         8.9920   -2.5170   10.1940 C.3    11  GLY11       0.1956
     15  C          8.0050   -3.5980   10.5750 C.2    11  GLY11       0.2612
     16  O          8.3800   -4.7480   10.8050 O.2    11  GLY11      -0.2717
     17  N          6.7320   -3.2250   10.6290 N.am   12  LYS12      -0.1965
     18  CA         5.6710   -4.1530   10.9860 C.3    12  LYS12       0.1728
     19  C          5.4140   -5.1980    9.9070 C.2    12  LYS12       0.2616
     20  O          4.9800   -6.3120   10.2080 O.2    12  LYS12      -0.2715
     21  CB         4.3720   -3.3870   11.2500 C.3    12  LYS12       0.0311
     22  CG         3.1190   -2.5260   11.3220 C.3    12  LYS12       0.0038
     23  CD         3.1450   -1.5880   12.5330 C.3    12  LYS12       0.0206
     24  CE         2.6690   -0.2930   11.8840 C.3    12  LYS12       0.1093
     25  NZ         3.7710    0.4690   11.2160 N.3    12  LYS12      -0.1314
     26  N          5.6880   -4.8480    8.6540 N.am   13  ALA13      -0.1963
     27  CA         5.4250   -5.7670    7.5550 C.3    13  ALA13       0.1728
     28  C          6.5880   -6.1410    6.6420 C.2    13  ALA13       0.2616
     29  O          6.5340   -7.1770    5.9800 O.2    13  ALA13      -0.2715
     30  CB         4.2780   -5.2210    6.7060 C.3    13  ALA13       0.0334
     31  N          7.6270   -5.3130    6.5970 N.am   14  LYS14      -0.1977
     32  CA         8.7640   -5.5900    5.7210 C.3    14  LYS14       0.1596
     33  C         10.1170   -5.3140    6.3550 C.2    14  LYS14       0.2287
     34  O         10.2270   -4.5900    7.3410 O.2    14  LYS14      -0.2864
     35  CB         8.6500   -4.7510    4.4410 C.3    14  LYS14       0.0298
     36  CG         7.4610   -5.1080    3.5600 C.3    14  LYS14       0.0038
     37  CD         6.9180   -3.8840    2.8460 C.3    14  LYS14       0.0206
     38  CE         6.9860   -2.3750    2.7790 C.3    14  LYS14       0.1093
     39  NZ         5.7440   -1.6880    3.2320 N.3    14  LYS14      -0.1314
     40  N         13.9330   -3.8870    5.4950 N.3    16  ILE16      -0.1245
     41  CA        14.6410   -3.0610    4.5300 C.3    16  ILE16       0.1561
     42  C         16.1460   -3.2770    4.6310 C.2    16  ILE16       0.2260
     43  O         16.7600   -2.9690    5.6550 O.2    16  ILE16      -0.2867
     44  CB        14.3340   -1.5610    4.7540 C.3    16  ILE16       0.0252
     45  CG1       12.8200   -1.3240    4.7310 C.3    16  ILE16       0.0019
     46  CG2       15.0070   -0.7260    3.6750 C.3    16  ILE16       0.0019
     47  CD1       12.1410   -1.6980    3.4130 C.3    16  ILE16       0.0001
     48  N         17.6330   -0.0920   -2.5530 N.3    25  LEU25      -0.1245
     49  CA        17.2850   -0.8740   -1.3710 C.3    25  LEU25       0.1561
     50  C         16.6720   -2.2220   -1.7310 C.2    25  LEU25       0.2260
     51  O         16.0840   -2.3860   -2.8030 O.2    25  LEU25      -0.2867
     52  CB        16.3120   -0.0950   -0.4830 C.3    25  LEU25       0.0270
     53  CG        16.8160    1.2300    0.0930 C.3    25  LEU25       0.0019
     54  CD1       15.6920    1.8950    0.8560 C.3    25  LEU25       0.0001
     55  CD2       18.0180    0.9870    1.0030 C.3    25  LEU25       0.0001
     56  N         13.9480   -4.8680   -0.4910 N.3    27  VAL27      -0.1245
     57  CA        12.7650   -5.0130    0.3570 C.3    27  VAL27       0.1561
     58  C         12.2710   -6.4520    0.4630 C.2    27  VAL27       0.2260
     59  O         12.0170   -7.1070   -0.5450 O.2    27  VAL27      -0.2867
     60  CB        11.5920   -4.1510   -0.1730 C.3    27  VAL27       0.0252
     61  CG1       10.3810   -4.2910    0.7430 C.3    27  VAL27       0.0019
     62  CG2       12.0180   -2.7040   -0.2750 C.3    27  VAL27       0.0019
     63  N          9.2440    4.3720   -6.8790 N.3    70  HIS70      -0.1241
     64  CA        10.5260    3.7720   -6.5160 C.3    70  HIS70       0.1621
     65  C         10.7920    2.3340   -6.9550 C.2    70  HIS70       0.2264
     66  O         11.9150    1.8480   -6.8190 O.2    70  HIS70      -0.2867
     67  CB        10.6980    3.8540   -4.9990 C.3    70  HIS70       0.0745
     68  CG         9.8840    2.8500   -4.2430 C.ar   70  HIS70       0.0817
     69  ND1        8.7130    2.3130   -4.7350 N.ar   70  HIS70      -0.2268
     70  CD2       10.0580    2.3080   -3.0150 C.ar   70  HIS70       0.1154
     71  CE1        8.2030    1.4820   -3.8420 C.ar   70  HIS70       0.1986
     72  NE2        8.9990    1.4640   -2.7880 N.ar   70  HIS70      -0.2212
     73  N         14.1210   -1.5060   -4.8880 N.3    82  VAL82      -0.1231
     74  CA        13.5330   -0.1760   -5.0450 C.3    82  VAL82       0.1692
     75  C         14.5530    0.9480   -4.8930 C.2    82  VAL82       0.2592
     76  O         15.6330    0.7560   -4.3350 O.2    82  VAL82      -0.2718
     77  CB        12.4040    0.0660   -4.0110 C.3    82  VAL82       0.0266
     78  CG1       11.3880   -1.0640   -4.0850 C.3    82  VAL82       0.0020
     79  CG2       12.9880    0.1760   -2.5990 C.3    82  VAL82       0.0020
     80  N         14.1870    2.1230   -5.3980 N.am   83  ARG83      -0.1966
     81  CA        15.0250    3.3120   -5.3090 C.3    83  ARG83       0.1729
     82  C         14.9620    3.8470   -3.8820 C.2    83  ARG83       0.2616
     83  O         13.8810    4.0080   -3.3110 O.2    83  ARG83      -0.2715
     84  CB        14.5110    4.3950   -6.2600 C.3    83  ARG83       0.0348
     85  CG        14.3280    3.9500   -7.6970 C.3    83  ARG83       0.0492
     86  CD        14.0710    5.0050   -8.7570 C.3    83  ARG83       0.2205
     87  NE        14.2160    4.4610  -10.1070 N.pl3  83  ARG83      -0.0865
     88  CZ        13.5260    3.4270  -10.5790 C.cat  83  ARG83       0.5346
     89  NH1       13.9920    2.7290  -11.6050 N.pl3  83  ARG83       0.1354
     90  NH2       12.3700    3.0870  -10.0250 N.pl3  83  ARG83       0.1354
     91  N         16.1230    4.1360   -3.3110 N.am   84  ARG84      -0.1963
     92  CA        16.1900    4.6520   -1.9550 C.3    84  ARG84       0.1729
     93  C         15.7850    6.1210   -1.8990 C.2    84  ARG84       0.2616
     94  O         16.2480    6.9350   -2.7000 O.2    84  ARG84      -0.2715
     95  CB        17.6140    4.4850   -1.4160 C.3    84  ARG84       0.0348
     96  CG        17.7910    4.8510    0.0430 C.3    84  ARG84       0.0492
     97  CD        19.1440    4.3680    0.5410 C.3    84  ARG84       0.2205
     98  NE        19.3030    4.5470    1.9820 N.pl3  84  ARG84      -0.0865
     99  CZ        20.3160    4.0540    2.6860 C.cat  84  ARG84       0.5346
    100  NH1       21.2640    3.3470    2.0830 N.pl3  84  ARG84       0.1354
    101  NH2       20.3820    4.2660    3.9930 N.pl3  84  ARG84       0.1354
    102  N         14.8980    6.4520   -0.9680 N.am   85  VAL85      -0.1977
    103  CA        14.4610    7.8320   -0.7770 C.3    85  VAL85       0.1596
    104  C         14.3480    8.0660    0.7210 C.2    85  VAL85       0.2287
    105  O         14.4370    7.1230    1.5110 O.2    85  VAL85      -0.2864
    106  CB        13.0720    8.1210   -1.4260 C.3    85  VAL85       0.0276
    107  CG1       13.1400    7.9260   -2.9390 C.3    85  VAL85       0.0022
    108  CG2       12.0030    7.2200   -0.8200 C.3    85  VAL85       0.0022
    109  N         11.8120    9.0140    3.2580 N.3    87  ILE87      -0.1245
    110  CA        10.3680    9.0970    3.4060 C.3    87  ILE87       0.1561
    111  C          9.8530   10.3350    4.1170 C.2    87  ILE87       0.2260
    112  O         10.3800   10.7360    5.1530 O.2    87  ILE87      -0.2867
    113  CB         9.8300    7.8430    4.1510 C.3    87  ILE87       0.0252
    114  CG1       10.1430    6.5840    3.3380 C.3    87  ILE87       0.0019
    115  CG2        8.3210    7.9640    4.3800 C.3    87  ILE87       0.0019
    116  CD1        9.3290    6.4530    2.0540 C.3    87  ILE87       0.0001
    117  N          2.8230    9.9350    9.9310 N.3   124  LYS124     -0.1245
    118  CA         3.4080    8.6040   10.0640 C.3   124  LYS124      0.1561
    119  C          4.2400    8.6030   11.3360 C.2   124  LYS124      0.2260
    120  O          5.4380    8.8980   11.3240 O.2   124  LYS124     -0.2867
    121  CB         4.2980    8.2300    8.8700 C.3   124  LYS124      0.0271
    122  CG         4.8210    6.7870    8.9690 C.3   124  LYS124      0.0035
    123  CD         5.6820    6.3830    7.7840 C.3   124  LYS124      0.0206
    124  CE         6.1880    4.9430    7.9320 C.3   124  LYS124      0.1093
    125  NZ         5.0840    3.9420    8.0510 N.3   124  LYS124     -0.1314
    126  N          3.7200    5.9890   14.5300 N.3   126  ASP126     -0.1239
    127  CA         2.9570    4.9540   15.2060 C.3   126  ASP126      0.1674
    128  C          2.8290    5.1720   16.7120 C.2   126  ASP126      0.2266
    129  O          1.8180    4.8020   17.3080 O.2   126  ASP126     -0.2867
    130  CB         3.5630    3.5800   14.9100 C.3   126  ASP126      0.1410
    131  CG         3.5510    3.2480   13.4240 C.2   126  ASP126      0.3668
    132  OD1        2.6450    3.7330   12.7090 O.co2 126  ASP126     -0.2456
    133  OD2        4.4360    2.4940   12.9720 O.co2 126  ASP126     -0.2456
    134  N          2.7760    6.3820    0.5190 N.3   180  GLU180     -0.1245
    135  CA         3.8990    7.0270    1.1860 C.3   180  GLU180      0.1567
    136  C          4.8280    7.5200    0.0840 C.2   180  GLU180      0.2260
    137  O          5.0590    6.8160   -0.8940 O.2   180  GLU180     -0.2867
    138  CB         4.6530    6.0560    2.0910 C.3   180  GLU180      0.0388
    139  CG         3.9210    5.7250    3.3780 C.3   180  GLU180      0.1160
    140  CD         4.7350    4.8290    4.2880 C.2   180  GLU180      0.3649
    141  OE1        5.9630    4.7200    4.0790 O.co2 180  GLU180     -0.2457
    142  OE2        4.1460    4.2460    5.2210 O.co2 180  GLU180     -0.2457
    143  N          6.6160    5.8020   -3.0000 N.3   192  ALA192     -0.1231
    144  CA         7.4040    4.7680   -2.3440 C.3   192  ALA192      0.1694
    145  C          6.5100    3.7410   -1.6660 C.2   192  ALA192      0.2592
    146  O          5.3590    3.5430   -2.0460 O.2   192  ALA192     -0.2718
    147  CB         8.2630    5.4010   -1.2580 C.3   192  ALA192      0.0304
    148  N          6.5550    2.8180   -0.7090 N.am  193  ASP193     -0.1974
    149  CA         6.2610    1.8060    0.3000 C.3   193  ASP193      0.1709
    150  C          5.7890    0.8970   -0.8280 C.2   193  ASP193      0.2293
    151  O          6.3850    0.0980   -1.5440 O.2   193  ASP193     -0.2864
    152  CB         5.5610    2.4450    1.5020 C.3   193  ASP193      0.1436
    153  CG         5.2740    1.4470    2.6060 C.2   193  ASP193      0.3671
    154  OD1        6.2260    0.7910    3.0790 O.co2 193  ASP193     -0.2456
    155  OD2        4.0960    1.3180    3.0000 O.co2 193  ASP193     -0.2456
@<TRIPOS>BOND
     1    89    88    1
     2    88    87    2
     3    88    90    1
     4    87    86    1
     5    86    85    1
     6    85    84    1
     7    65    66    2
     8    65    64    1
     9    63    64    1
    10    64    67    1
    11    84    81    1
    12    80    81    1
    13    80    75   am
    14    81    82    1
    15    74    75    1
    16    74    73    1
    17    74    77    1
    18    67    68    1
    19    75    76    2
    20    69    68   ar
    21    69    71   ar
    22    68    70   ar
    23    78    77    1
    24    77    79    1
    25    82    91   am
    26    82    83    2
    27    71    72   ar
    28    91    92    1
    29    70    72   ar
    30   143   144    1
    31   107   106    1
    32    51    50    2
    33    94    93    2
    34    48    49    1
    35   144   145    1
    36   144   147    1
    37   146   145    2
    38    92    93    1
    39    92    95    1
    40    93   102   am
    41    50    49    1
    42   145   148   am
    43   151   150    2
    44   106   108    1
    45   106   103    1
    46    95    96    1
    47    49    52    1
    48   102   103    1
    49   137   136    2
    50   150   149    1
    51   103   104    1
    52   148   149    1
    53    59    58    2
    54    56    57    1
    55    52    53    1
    56    62    60    1
    57    60    57    1
    58    60    61    1
    59    96    97    1
    60   136   135    1
    61    53    54    1
    62    53    55    1
    63   149   152    1
    64    57    58    1
    65   134   135    1
    66    97    98    1
    67   104   105    2
    68   135   138    1
    69   152   153    1
    70    98    99    2
    71   116   114    1
    72   100    99    1
    73   138   139    1
    74   153   155   ar
    75   153   154   ar
    76    99   101    1
    77    38    37    1
    78    38    39    1
    79    37    36    1
    80   109   110    1
    81   114   113    1
    82   139   140    1
    83   110   111    1
    84   110   113    1
    85    47    45    1
    86    36    35    1
    87    46    44    1
    88   141   140   ar
    89   111   112    2
    90   113   115    1
    91   140   142   ar
    92    35    32    1
    93    41    42    1
    94    41    44    1
    95    41    40    1
    96    42    43    2
    97    45    44    1
    98    32    33    1
    99    32    31    1
   100    29    28    2
   101    33    34    2
   102    31    28   am
   103    28    27    1
   104    30    27    1
   105    27    26    1
   106   123   124    1
   107   123   122    1
   108   124   125    1
   109     4     3    2
   110     1     2    1
   111    26    19   am
   112     5     2    1
   113     5     6    1
   114     8    10   ar
   115     8     6   ar
   116   121   122    1
   117   121   118    1
   118     3     2    1
   119    10    11   ar
   120     6     7   ar
   121    13    14    1
   122    19    20    2
   123    19    18    1
   124   117   118    1
   125   118   119    1
   126    14    15    1
   127    11    12    1
   128    11     9   ar
   129     7     9   ar
   130    15    17   am
   131    15    16    2
   132    17    18    1
   133    18    21    1
   134    25    24    1
   135    21    22    1
   136    22    23    1
   137   120   119    2
   138    24    23    1
   139   132   131   ar
   140   133   131   ar
   141   131   130    1
   142   126   127    1
   143   130   127    1
   144   127   128    1
   145   128   129    2
