@<TRIPOS>MOLECULE
tmp/2ywwB00.pdb
 129 117 0 0 0
SMALL
GASTEIGER

@<TRIPOS>ATOM
      1  N         31.7860   27.7590   47.2340 N.3     3  LYS3       -0.1231
      2  CA        30.5360   27.9040   46.4920 C.3     3  LYS3        0.1693
      3  C         30.7860   28.2640   45.0340 C.2     3  LYS3        0.2592
      4  O         31.3190   29.3280   44.7210 O.2     3  LYS3       -0.2718
      5  CB        29.6480   28.9790   47.1290 C.3     3  LYS3        0.0285
      6  CG        28.5780   28.4480   48.0780 C.3     3  LYS3        0.0035
      7  CD        29.1850   27.6670   49.2320 C.3     3  LYS3        0.0206
      8  CE        28.1420   27.3040   50.2750 C.3     3  LYS3        0.1093
      9  NZ        28.7580   26.6140   51.4430 N.3     3  LYS3       -0.1314
     10  N         30.3880   27.3600   44.1490 N.am    4  LYS4       -0.1966
     11  CA        30.5480   27.5490   42.7190 C.3     4  LYS4        0.1728
     12  C         29.4240   28.4470   42.2090 C.2     4  LYS4        0.2616
     13  O         28.2650   28.2660   42.5800 O.2     4  LYS4       -0.2715
     14  CB        30.4990   26.1840   42.0300 C.3     4  LYS4        0.0311
     15  CG        30.9300   26.1810   40.5840 C.3     4  LYS4        0.0038
     16  CD        31.1190   24.7610   40.0790 C.3     4  LYS4        0.0206
     17  CE        31.6790   24.7520   38.6670 C.3     4  LYS4        0.1093
     18  NZ        31.9600   23.3700   38.1930 N.3     4  LYS4       -0.1314
     19  N         29.7680   29.4210   41.3710 N.am    5  ILE5       -0.1977
     20  CA        28.7760   30.3350   40.8110 C.3     5  ILE5        0.1596
     21  C         27.7230   29.5880   39.9950 C.2     5  ILE5        0.2287
     22  O         28.0410   28.6750   39.2340 O.2     5  ILE5       -0.2864
     23  CB        29.4370   31.4030   39.9030 C.3     5  ILE5        0.0276
     24  CG1       30.2850   32.3500   40.7580 C.3     5  ILE5        0.0022
     25  CG2       28.3700   32.1750   39.1320 C.3     5  ILE5        0.0022
     26  CD1       30.8360   33.5500   40.0070 C.3     5  ILE5        0.0001
     27  N         32.6190   35.2590   34.9860 N.3    10  VAL10      -0.1245
     28  CA        33.9580   35.0410   35.5040 C.3    10  VAL10       0.1561
     29  C         34.9130   35.7600   34.5570 C.2    10  VAL10       0.2260
     30  O         35.0850   35.3490   33.4050 O.2    10  VAL10      -0.2867
     31  CB        34.3410   33.5470   35.5670 C.3    10  VAL10       0.0252
     32  CG1       35.8260   33.4070   35.9230 C.3    10  VAL10       0.0019
     33  CG2       33.4890   32.8340   36.6130 C.3    10  VAL10       0.0019
     34  N         38.3140   36.2080   33.6980 N.3    12  ASP12      -0.1225
     35  CA        39.5650   35.5030   33.9140 C.3    12  ASP12       0.1805
     36  C         40.7500   36.0690   33.1400 C.2    12  ASP12       0.2597
     37  O         40.5880   36.8680   32.2210 O.2    12  ASP12      -0.2718
     38  CB        39.3240   34.0290   33.5550 C.3    12  ASP12       0.1424
     39  CG        40.4280   33.0990   34.0360 C.2    12  ASP12       0.3668
     40  OD1       41.3000   33.5260   34.8250 O.co2  12  ASP12      -0.2456
     41  OD2       40.4040   31.9200   33.6200 O.co2  12  ASP12      -0.2456
     42  N         41.9460   35.6550   33.5400 N.am   13  HIS13      -0.1975
     43  CA        43.1830   36.0760   32.8900 C.3    13  HIS13       0.1656
     44  C         43.4090   37.5810   32.9190 C.2    13  HIS13       0.2291
     45  O         43.9310   38.1510   31.9660 O.2    13  HIS13      -0.2864
     46  CB        43.2050   35.5850   31.4370 C.3    13  HIS13       0.0771
     47  CG        42.9150   34.1230   31.2930 C.ar   13  HIS13       0.0820
     48  ND1       43.6960   33.1480   31.8770 N.ar   13  HIS13      -0.2267
     49  CD2       41.9180   33.4720   30.6500 C.ar   13  HIS13       0.1154
     50  CE1       43.1930   31.9590   31.5990 C.ar   13  HIS13       0.1986
     51  NE2       42.1140   32.1270   30.8550 N.ar   13  HIS13      -0.2212
     52  N         49.2640   30.0920   31.8580 N.3    44  LYS44      -0.1245
     53  CA        49.3810   30.9580   30.6970 C.3    44  LYS44       0.1561
     54  C         50.1130   32.2670   30.9730 C.2    44  LYS44       0.2260
     55  O         50.9330   32.7020   30.1670 O.2    44  LYS44      -0.2867
     56  CB        47.9850   31.2630   30.1520 C.3    44  LYS44       0.0271
     57  CG        47.1790   30.0180   29.8130 C.3    44  LYS44       0.0035
     58  CD        45.7590   30.3630   29.3930 C.3    44  LYS44       0.0206
     59  CE        44.9230   29.1040   29.2260 C.3    44  LYS44       0.1093
     60  NZ        43.5120   29.4200   28.9040 N.3    44  LYS44      -0.1314
     61  N         48.1200   35.9230   37.7400 N.3    48  LYS48      -0.1245
     62  CA        47.0160   36.6750   37.1760 C.3    48  LYS48       0.1561
     63  C         46.0330   37.0080   38.2770 C.2    48  LYS48       0.2260
     64  O         46.2180   36.6190   39.4300 O.2    48  LYS48      -0.2867
     65  CB        46.2960   35.8260   36.1330 C.3    48  LYS48       0.0271
     66  CG        45.5530   34.6420   36.7560 C.3    48  LYS48       0.0035
     67  CD        44.7590   33.8450   35.7470 C.3    48  LYS48       0.0206
     68  CE        44.1300   32.6200   36.4030 C.3    48  LYS48       0.1093
     69  NZ        43.3120   31.8470   35.4330 N.3    48  LYS48      -0.1314
     70  N         41.6220   37.3100   38.9830 N.3    50  ILE50      -0.1245
     71  CA        40.3410   36.7810   38.5250 C.3    50  ILE50       0.1561
     72  C         39.2270   37.5460   39.2320 C.2    50  ILE50       0.2260
     73  O         39.3640   37.9210   40.4050 O.2    50  ILE50      -0.2867
     74  CB        40.1440   35.2930   38.8950 C.3    50  ILE50       0.0252
     75  CG1       41.3640   34.4670   38.4940 C.3    50  ILE50       0.0019
     76  CG2       38.8840   34.7550   38.2050 C.3    50  ILE50       0.0019
     77  CD1       41.2510   33.0130   38.8840 C.3    50  ILE50       0.0001
     78  N         35.1210   37.0680   39.8490 N.3    52  LYS52      -0.1245
     79  CA        33.9390   36.2330   39.6890 C.3    52  LYS52       0.1561
     80  C         32.7500   36.9950   40.2480 C.2    52  LYS52       0.2260
     81  O         32.6850   37.2610   41.4500 O.2    52  LYS52      -0.2867
     82  CB        34.1240   34.9040   40.4200 C.3    52  LYS52       0.0271
     83  CG        35.4130   34.1900   40.0450 C.3    52  LYS52       0.0035
     84  CD        35.3620   32.7010   40.3660 C.3    52  LYS52       0.0206
     85  CE        36.7020   32.0440   40.0870 C.3    52  LYS52       0.1093
     86  NZ        36.6500   30.5680   40.2210 N.3    52  LYS52      -0.1314
     87  N         39.4440   36.9160   29.5650 N.3    74  THR74      -0.1218
     88  CA        38.4620   36.0380   28.9790 C.3    74  THR74       0.1862
     89  C         37.2010   36.2500   29.8000 C.2    74  THR74       0.2287
     90  O         37.2280   36.1530   31.0330 O.2    74  THR74      -0.2866
     91  CB        38.8960   34.5660   29.0620 C.3    74  THR74       0.1770
     92  OG1       40.1210   34.3880   28.3370 O.3    74  THR74      -0.2211
     93  CG2       37.8110   33.6610   28.4740 C.3    74  THR74       0.0375
     94  N         33.8510   34.8580   30.8570 N.3    76  ASN76      -0.1240
     95  CA        33.1400   33.5890   30.8990 C.3    76  ASN76       0.1653
     96  C         31.7100   33.7740   31.3860 C.2    76  ASN76       0.2266
     97  O         31.4760   34.1990   32.5270 O.2    76  ASN76      -0.2867
     98  CB        33.8710   32.6080   31.8190 C.3    76  ASN76       0.1155
     99  CG        35.2100   32.1710   31.2600 C.2    76  ASN76       0.2627
    100  OD1       35.2780   31.3120   30.3830 O.2    76  ASN76      -0.2716
    101  ND2       36.2850   32.7730   31.7580 N.am   76  ASN76      -0.0877
    102  N         28.4810   32.4180   32.8190 N.3    78  ILE78      -0.1245
    103  CA        28.0810   31.2580   33.6090 C.3    78  ILE78       0.1561
    104  C         26.5630   31.1490   33.7510 C.2    78  ILE78       0.2260
    105  O         25.8760   32.1280   34.0560 O.2    78  ILE78      -0.2867
    106  CB        28.6820   31.3000   35.0370 C.3    78  ILE78       0.0252
    107  CG1       30.1970   31.5490   34.9790 C.3    78  ILE78       0.0019
    108  CG2       28.3910   29.9820   35.7550 C.3    78  ILE78       0.0019
    109  CD1       30.9980   30.4120   34.3780 C.3    78  ILE78       0.0001
    110  N         25.9270   27.0000   36.5560 N.3    81  GLY81      -0.1225
    111  CA        27.2610   26.6340   36.9960 C.3    81  GLY81       0.1811
    112  C         28.1830   26.1690   35.8900 C.2    81  GLY81       0.2280
    113  O         29.2680   25.6440   36.1540 O.2    81  GLY81      -0.2866
    114  N         30.1970   27.0650   32.1220 N.3    83  VAL83      -0.1245
    115  CA        30.6910   28.1070   31.2320 C.3    83  VAL83       0.1561
    116  C         30.0170   27.8380   29.8960 C.2    83  VAL83       0.2260
    117  O         30.3240   26.8490   29.2300 O.2    83  VAL83      -0.2867
    118  CB        32.2150   28.0170   31.0360 C.3    83  VAL83       0.0252
    119  CG1       32.6630   29.0690   30.0410 C.3    83  VAL83       0.0019
    120  CG2       32.9290   28.2010   32.3740 C.3    83  VAL83       0.0019
    121  N         32.5880   32.0850   26.0040 N.3    86  LYS86      -0.1245
    122  CA        33.8190   32.8070   26.3040 C.3    86  LYS86       0.1561
    123  C         33.9010   33.9770   25.3300 C.2    86  LYS86       0.2260
    124  O         33.8490   33.7880   24.1090 O.2    86  LYS86      -0.2867
    125  CB        35.0490   31.9030   26.1430 C.3    86  LYS86       0.0271
    126  CG        35.1480   30.7580   27.1570 C.3    86  LYS86       0.0035
    127  CD        36.4050   29.9240   26.9200 C.3    86  LYS86       0.0206
    128  CE        36.5900   28.8340   27.9800 C.3    86  LYS86       0.1093
    129  NZ        36.9470   29.3950   29.3180 N.3    86  LYS86      -0.1314
@<TRIPOS>BOND
     1   124   123    2
     2   123   122    1
     3   121   122    1
     4   125   122    1
     5   125   126    1
     6   127   126    1
     7   127   128    1
     8   128   129    1
     9    92    91    1
    10    93    91    1
    11    60    59    1
    12    88    91    1
    13    88    87    1
    14    88    89    1
    15    59    58    1
    16   117   116    2
    17    58    57    1
    18    89    90    2
    19    57    56    1
    20   116   115    1
    21   119   118    1
    22    56    53    1
    23    55    54    2
    24   100    99    2
    25    49    51   ar
    26    49    47   ar
    27    53    54    1
    28    53    52    1
    29    51    50   ar
    30    94    95    1
    31    95    96    1
    32    95    98    1
    33   118   115    1
    34   118   120    1
    35   115   114    1
    36    99   101   am
    37    99    98    1
    38    47    46    1
    39    47    48   ar
    40    96    97    2
    41    46    43    1
    42    50    48   ar
    43    45    44    2
    44    37    36    2
    45   102   103    1
    46    43    44    1
    47    43    42    1
    48    36    42   am
    49    36    35    1
    50    30    29    2
    51    38    35    1
    52    38    39    1
    53   103   104    1
    54   103   106    1
    55    41    39   ar
    56    34    35    1
    57   104   105    2
    58    39    40   ar
    59   109   107    1
    60    29    28    1
    61   107   106    1
    62    27    28    1
    63   106   108    1
    64    69    68    1
    65    28    31    1
    66    31    32    1
    67    31    33    1
    68    67    68    1
    69    67    66    1
    70   112   113    2
    71   112   111    1
    72    65    66    1
    73    65    62    1
    74   110   111    1
    75    62    61    1
    76    62    63    1
    77    18    17    1
    78    76    74    1
    79    63    64    2
    80    75    77    1
    81    75    74    1
    82    71    74    1
    83    71    70    1
    84    71    72    1
    85    17    16    1
    86    25    23    1
    87    72    73    2
    88    22    21    2
    89    79    78    1
    90    79    80    1
    91    79    82    1
    92    23    24    1
    93    23    20    1
    94    21    20    1
    95    26    24    1
    96    83    84    1
    97    83    82    1
    98    16    15    1
    99    85    86    1
   100    85    84    1
   101    80    81    2
   102    15    14    1
   103    20    19    1
   104    19    12   am
   105    14    11    1
   106    12    13    2
   107    12    11    1
   108    11    10    1
   109    10     3   am
   110     4     3    2
   111     3     2    1
   112     2     5    1
   113     2     1    1
   114     5     6    1
   115     6     7    1
   116     7     8    1
   117     8     9    1
