@<TRIPOS>MOLECULE
tmp/2ywwB01.pdb
 102 96 0 0 0
SMALL
GASTEIGER

@<TRIPOS>ATOM
      1  N         34.6660   25.5590   47.7310 N.3     2  VAL2       -0.1245
      2  CA        33.9530   26.8310   47.7850 C.3     2  VAL2        0.1561
      3  C         32.7010   26.8430   46.9190 C.2     2  VAL2        0.2260
      4  O         32.5690   26.0430   45.9880 O.2     2  VAL2       -0.2867
      5  CB        34.8650   27.9970   47.3370 C.3     2  VAL2        0.0252
      6  CG1       36.0870   28.0570   48.2190 C.3     2  VAL2        0.0019
      7  CG2       35.2730   27.8190   45.8760 C.3     2  VAL2        0.0019
      8  N         38.3140   36.2080   33.6980 N.3    12  ASP12      -0.1225
      9  CA        39.5650   35.5030   33.9140 C.3    12  ASP12       0.1805
     10  C         40.7500   36.0690   33.1400 C.2    12  ASP12       0.2597
     11  O         40.5880   36.8680   32.2210 O.2    12  ASP12      -0.2718
     12  CB        39.3240   34.0290   33.5550 C.3    12  ASP12       0.1424
     13  CG        40.4280   33.0990   34.0360 C.2    12  ASP12       0.3668
     14  OD1       41.3000   33.5260   34.8250 O.co2  12  ASP12      -0.2456
     15  OD2       40.4040   31.9200   33.6200 O.co2  12  ASP12      -0.2456
     16  N         41.9460   35.6550   33.5400 N.am   13  HIS13      -0.1975
     17  CA        43.1830   36.0760   32.8900 C.3    13  HIS13       0.1656
     18  C         43.4090   37.5810   32.9190 C.2    13  HIS13       0.2291
     19  O         43.9310   38.1510   31.9660 O.2    13  HIS13      -0.2864
     20  CB        43.2050   35.5850   31.4370 C.3    13  HIS13       0.0771
     21  CG        42.9150   34.1230   31.2930 C.ar   13  HIS13       0.0820
     22  ND1       43.6960   33.1480   31.8770 N.ar   13  HIS13      -0.2267
     23  CD2       41.9180   33.4720   30.6500 C.ar   13  HIS13       0.1154
     24  CE1       43.1930   31.9590   31.5990 C.ar   13  HIS13       0.1986
     25  NE2       42.1140   32.1270   30.8550 N.ar   13  HIS13      -0.2212
     26  N         33.9670   37.4010   44.1080 N.3    35  MET35      -0.1245
     27  CA        35.1670   36.7330   44.5890 C.3    35  MET35       0.1570
     28  C         36.2970   37.3090   43.7510 C.2    35  MET35       0.2261
     29  O         36.2480   37.2920   42.5140 O.2    35  MET35      -0.2867
     30  CB        35.0510   35.2070   44.4380 C.3    35  MET35       0.0387
     31  CG        36.1410   34.5140   43.6230 C.3    35  MET35       0.0595
     32  SD        37.8650   34.7450   44.1530 S.3    35  MET35      -0.1393
     33  CE        38.6480   34.5700   42.6040 C.3    35  MET35       0.0692
     34  N         40.3680   37.1570   43.0800 N.3    37  ALA37      -0.1245
     35  CA        41.6480   36.4650   43.2370 C.3    37  ALA37       0.1562
     36  C         42.7300   37.3970   42.7010 C.2    37  ALA37       0.2260
     37  O         42.6450   37.8750   41.5640 O.2    37  ALA37      -0.2867
     38  CB        41.6450   35.1620   42.4580 C.3    37  ALA37       0.0290
     39  N         47.3280   35.2100   41.6420 N.3    40  VAL40      -0.1231
     40  CA        47.2380   33.7700   41.7950 C.3    40  VAL40       0.1678
     41  C         47.8720   33.0960   40.5890 C.2    40  VAL40       0.2434
     42  O         48.0150   33.7090   39.5310 O.2    40  VAL40      -0.2733
     43  CB        45.7740   33.3020   41.9230 C.3    40  VAL40       0.0265
     44  CG1       45.1270   33.9570   43.1480 C.3    40  VAL40       0.0020
     45  CG2       45.0030   33.6330   40.6460 C.3    40  VAL40       0.0020
     46  N         48.2720   31.8240   40.7410 N.am   41  PRO41      -0.2718
     47  CA        48.9010   31.0360   39.6780 C.3    41  PRO41       0.1535
     48  C         48.1580   31.0080   38.3450 C.2    41  PRO41       0.2599
     49  O         46.9260   30.9740   38.2900 O.2    41  PRO41      -0.2715
     50  CB        49.0060   29.6420   40.3000 C.3    41  PRO41       0.0310
     51  CG        49.2400   29.9460   41.7440 C.3    41  PRO41       0.0237
     52  CD        48.2510   31.0700   42.0090 C.3    41  PRO41       0.0939
     53  N         48.9380   31.0150   37.2710 N.am   42  SER42      -0.1936
     54  CA        48.4180   30.9600   35.9150 C.3    42  SER42       0.2055
     55  C         49.4540   30.2670   35.0340 C.2    42  SER42       0.2643
     56  O         50.6070   30.7000   34.9630 O.2    42  SER42      -0.2714
     57  CB        48.1650   32.3640   35.3740 C.3    42  SER42       0.2130
     58  OG        47.7240   32.2820   34.0330 O.3    42  SER42      -0.2179
     59  N         49.0550   29.1870   34.3730 N.am   43  LYS43      -0.1963
     60  CA        49.9830   28.4810   33.5040 C.3    43  LYS43       0.1728
     61  C         50.2730   29.3430   32.2830 C.2    43  LYS43       0.2616
     62  O         51.3820   29.3480   31.7550 O.2    43  LYS43      -0.2715
     63  CB        49.3930   27.1350   33.0690 C.3    43  LYS43       0.0311
     64  CG        49.3290   26.1000   34.1800 C.3    43  LYS43       0.0038
     65  CD        50.7050   25.8730   34.8020 C.3    43  LYS43       0.0206
     66  CE        51.7350   25.4370   33.7580 C.3    43  LYS43       0.1093
     67  NZ        53.1120   25.3130   34.3230 N.3    43  LYS43      -0.1314
     68  N         49.2640   30.0920   31.8580 N.am   44  LYS44      -0.1977
     69  CA        49.3810   30.9580   30.6970 C.3    44  LYS44       0.1596
     70  C         50.1130   32.2670   30.9730 C.2    44  LYS44       0.2287
     71  O         50.9330   32.7020   30.1670 O.2    44  LYS44      -0.2864
     72  CB        47.9850   31.2630   30.1520 C.3    44  LYS44       0.0298
     73  CG        47.1790   30.0180   29.8130 C.3    44  LYS44       0.0038
     74  CD        45.7590   30.3630   29.3930 C.3    44  LYS44       0.0206
     75  CE        44.9230   29.1040   29.2260 C.3    44  LYS44       0.1093
     76  NZ        43.5120   29.4200   28.9040 N.3    44  LYS44      -0.1314
     77  N         48.1200   35.9230   37.7400 N.3    48  LYS48      -0.1245
     78  CA        47.0160   36.6750   37.1760 C.3    48  LYS48       0.1561
     79  C         46.0330   37.0080   38.2770 C.2    48  LYS48       0.2260
     80  O         46.2180   36.6190   39.4300 O.2    48  LYS48      -0.2867
     81  CB        46.2960   35.8260   36.1330 C.3    48  LYS48       0.0271
     82  CG        45.5530   34.6420   36.7560 C.3    48  LYS48       0.0035
     83  CD        44.7590   33.8450   35.7470 C.3    48  LYS48       0.0206
     84  CE        44.1300   32.6200   36.4030 C.3    48  LYS48       0.1093
     85  NZ        43.3120   31.8470   35.4330 N.3    48  LYS48      -0.1314
     86  N         41.6220   37.3100   38.9830 N.3    50  ILE50      -0.1245
     87  CA        40.3410   36.7810   38.5250 C.3    50  ILE50       0.1561
     88  C         39.2270   37.5460   39.2320 C.2    50  ILE50       0.2260
     89  O         39.3640   37.9210   40.4050 O.2    50  ILE50      -0.2867
     90  CB        40.1440   35.2930   38.8950 C.3    50  ILE50       0.0252
     91  CG1       41.3640   34.4670   38.4940 C.3    50  ILE50       0.0019
     92  CG2       38.8840   34.7550   38.2050 C.3    50  ILE50       0.0019
     93  CD1       41.2510   33.0130   38.8840 C.3    50  ILE50       0.0001
     94  N         35.1210   37.0680   39.8490 N.3    52  LYS52      -0.1245
     95  CA        33.9390   36.2330   39.6890 C.3    52  LYS52       0.1561
     96  C         32.7500   36.9950   40.2480 C.2    52  LYS52       0.2260
     97  O         32.6850   37.2610   41.4500 O.2    52  LYS52      -0.2867
     98  CB        34.1240   34.9040   40.4200 C.3    52  LYS52       0.0271
     99  CG        35.4130   34.1900   40.0450 C.3    52  LYS52       0.0035
    100  CD        35.3620   32.7010   40.3660 C.3    52  LYS52       0.0206
    101  CE        36.7020   32.0440   40.0870 C.3    52  LYS52       0.1093
    102  NZ        36.6500   30.5680   40.2210 N.3    52  LYS52      -0.1314
@<TRIPOS>BOND
     1    76    75    1
     2    75    74    1
     3    74    73    1
     4    73    72    1
     5    72    69    1
     6    71    70    2
     7    23    25   ar
     8    23    21   ar
     9    69    70    1
    10    69    68    1
    11    25    24   ar
    12    21    20    1
    13    21    22   ar
    14    20    17    1
    15    24    22   ar
    16    62    61    2
    17    68    61   am
    18    19    18    2
    19    11    10    2
    20    61    60    1
    21    17    18    1
    22    17    16    1
    23    63    60    1
    24    63    64    1
    25    10    16   am
    26    10     9    1
    27    60    59    1
    28    12     9    1
    29    12    13    1
    30    15    13   ar
    31     8     9    1
    32    66    67    1
    33    66    65    1
    34    58    57    1
    35    13    14   ar
    36    64    65    1
    37    59    55   am
    38    56    55    2
    39    55    54    1
    40    57    54    1
    41    85    84    1
    42    83    84    1
    43    83    82    1
    44    54    53    1
    45    81    82    1
    46    81    78    1
    47    78    77    1
    48    78    79    1
    49    53    48   am
    50    92    90    1
    51    79    80    2
    52    49    48    2
    53    48    47    1
    54    91    93    1
    55    91    90    1
    56    87    90    1
    57    87    86    1
    58    87    88    1
    59    88    89    2
    60    42    41    2
    61    47    50    1
    62    47    46    1
    63    95    94    1
    64    95    96    1
    65    95    98    1
    66    99   100    1
    67    99    98    1
    68   101   102    1
    69   101   100    1
    70    96    97    2
    71    50    51    1
    72    41    46   am
    73    41    40    1
    74    45    43    1
    75    46    52    1
    76    37    36    2
    77    39    40    1
    78    51    52    1
    79    40    43    1
    80    43    44    1
    81    38    35    1
    82    29    28    2
    83    33    32    1
    84    36    35    1
    85    34    35    1
    86    31    32    1
    87    31    30    1
    88    28    27    1
    89    26    27    1
    90    30    27    1
    91     7     5    1
    92     4     3    2
    93     3     2    1
    94     5     2    1
    95     5     6    1
    96     1     2    1
