@<TRIPOS>MOLECULE
tmp/2yx1A00.pdb
 211 207 0 0 0
SMALL
GASTEIGER

@<TRIPOS>ATOM
      1  N         53.1990   27.1510    2.9310 N.3   163  VAL163     -0.1231
      2  CA        54.1580   28.1360    3.4110 C.3   163  VAL163      0.1692
      3  C         53.4930   29.2600    4.1780 C.2   163  VAL163      0.2592
      4  O         52.2830   29.4420    4.1020 O.2   163  VAL163     -0.2718
      5  CB        54.8470   28.7660    2.2310 C.3   163  VAL163      0.0266
      6  CG1       55.3950   27.6790    1.2990 C.3   163  VAL163      0.0020
      7  CG2       53.8130   29.6070    1.4750 C.3   163  VAL163      0.0020
      8  N         54.2860   30.0350    4.9030 N.am  164  TYR164     -0.1962
      9  CA        53.7040   31.1540    5.6200 C.3   164  TYR164      0.1771
     10  C         53.6820   32.4030    4.7290 C.2   164  TYR164      0.2620
     11  O         54.6370   32.6900    4.0010 O.2   164  TYR164     -0.2715
     12  CB        54.4780   31.4420    6.9130 C.3   164  TYR164      0.0574
     13  CG        53.9430   32.6430    7.6590 C.ar  164  TYR164     -0.0198
     14  CD1       52.5670   32.8240    7.8440 C.ar  164  TYR164     -0.0009
     15  CD2       54.8040   33.6170    8.1660 C.ar  164  TYR164     -0.0009
     16  CE1       52.0650   33.9510    8.5170 C.ar  164  TYR164      0.0417
     17  CE2       54.3130   34.7520    8.8440 C.ar  164  TYR164      0.0417
     18  CZ        52.9450   34.9110    9.0150 C.ar  164  TYR164      0.1957
     19  OH        52.4480   36.0240    9.6670 O.3   164  TYR164     -0.2866
     20  N         52.5830   33.1320    4.7620 N.am  165  PHE165     -0.1960
     21  CA        52.4920   34.3500    3.9760 C.3   165  PHE165      0.1771
     22  C         51.4580   35.2860    4.5730 C.2   165  PHE165      0.2620
     23  O         50.3220   34.8910    4.7870 O.2   165  PHE165     -0.2715
     24  CB        52.1020   34.0690    2.5140 C.3   165  PHE165      0.0574
     25  CG        51.8490   35.3340    1.7120 C.ar  165  PHE165     -0.0200
     26  CD1       52.9080   36.1170    1.2580 C.ar  165  PHE165     -0.0042
     27  CD2       50.5540   35.8000    1.5170 C.ar  165  PHE165     -0.0042
     28  CE1       52.6840   37.3470    0.6330 C.ar  165  PHE165     -0.0003
     29  CE2       50.3130   37.0270    0.8950 C.ar  165  PHE165     -0.0003
     30  CZ        51.3760   37.8090    0.4510 C.ar  165  PHE165     -0.0000
     31  N         51.8520   36.5350    4.8270 N.am  166  SER166     -0.1950
     32  CA        50.9290   37.5270    5.3660 C.3   166  SER166      0.1924
     33  C         50.6630   38.6630    4.3540 C.2   166  SER166      0.2314
     34  O         51.5550   39.4180    3.9960 O.2   166  SER166     -0.2863
     35  CB        51.4840   38.1100    6.6740 C.3   166  SER166      0.2116
     36  OG        50.6300   39.1570    7.1200 O.3   166  SER166     -0.2180
     37  N         51.6040   42.4800    5.2040 N.3   169  LEU169     -0.1245
     38  CA        52.9470   43.0330    5.0850 C.3   169  LEU169      0.1561
     39  C         53.2330   43.6990    3.7330 C.2   169  LEU169      0.2260
     40  O         54.3740   44.0750    3.4420 O.2   169  LEU169     -0.2867
     41  CB        53.9750   41.9290    5.3360 C.3   169  LEU169      0.0270
     42  CG        54.6570   41.9230    6.7050 C.3   169  LEU169      0.0019
     43  CD1       53.6120   41.7960    7.8130 C.3   169  LEU169      0.0001
     44  CD2       55.6220   40.7430    6.7740 C.3   169  LEU169      0.0001
     45  N         56.4690   45.8810    2.6800 N.3   173  ARG173     -0.1245
     46  CA        57.2780   45.4990    1.5190 C.3   173  ARG173      0.1563
     47  C         57.4080   46.6350    0.5240 C.2   173  ARG173      0.2260
     48  O         58.4320   46.7620   -0.1390 O.2   173  ARG173     -0.2867
     49  CB        56.6910   44.2990    0.7760 C.3   173  ARG173      0.0307
     50  CG        56.9350   42.9510    1.4320 C.3   173  ARG173      0.0489
     51  CD        55.9110   41.9280    0.8910 C.3   173  ARG173      0.2205
     52  NE        55.8330   40.8770    1.8530 N.pl3 173  ARG173     -0.0865
     53  CZ        54.7220   40.3740    2.3360 C.cat 173  ARG173      0.5346
     54  NH1       53.5400   40.8200    1.9340 N.pl3 173  ARG173      0.1354
     55  NH2       54.8130   39.4290    3.2610 N.pl3 173  ARG173      0.1354
     56  N         67.9340   38.0900    1.2710 N.3   187  ASP187     -0.1239
     57  CA        66.6240   37.9120    1.8980 C.3   187  ASP187      0.1674
     58  C         66.8100   36.6340    2.7030 C.2   187  ASP187      0.2266
     59  O         66.6430   35.5230    2.1790 O.2   187  ASP187     -0.2867
     60  CB        65.5500   37.7290    0.7960 C.3   187  ASP187      0.1410
     61  CG        64.1140   37.7250    1.3360 C.2   187  ASP187      0.3668
     62  OD1       63.9270   37.7700    2.5730 O.co2 187  ASP187     -0.2456
     63  OD2       63.1660   37.6690    0.5100 O.co2 187  ASP187     -0.2456
     64  N         65.1220   35.0390    5.1370 N.3   188  PHE188     -0.1227
     65  CA        63.9620   34.1410    5.3330 C.3   188  PHE188      0.1736
     66  C         62.9440   34.5510    4.2810 C.2   188  PHE188      0.2595
     67  O         61.9560   35.2230    4.5830 O.2   188  PHE188     -0.2718
     68  CB        63.3840   34.3410    6.7380 C.3   188  PHE188      0.0547
     69  CG        64.4470   34.4300    7.8110 C.ar  188  PHE188     -0.0202
     70  CD1       64.8790   35.6680    8.2770 C.ar  188  PHE188     -0.0042
     71  CD2       65.0800   33.2710    8.2790 C.ar  188  PHE188     -0.0042
     72  CE1       65.9310   35.7620    9.1930 C.ar  188  PHE188     -0.0003
     73  CE2       66.1340   33.3400    9.2000 C.ar  188  PHE188     -0.0003
     74  CZ        66.5640   34.5820    9.6590 C.ar  188  PHE188     -0.0000
     75  N         63.1710   34.1100    3.0490 N.am  189  ALA189     -0.1966
     76  CA        62.3440   34.5480    1.9340 C.3   189  ALA189      0.1728
     77  C         60.9300   34.0430    1.6980 C.2   189  ALA189      0.2617
     78  O         60.1800   34.6860    0.9420 O.2   189  ALA189     -0.2715
     79  CB        63.1640   34.3940    0.6310 C.3   189  ALA189      0.0334
     80  N         60.5400   32.9370    2.3310 N.am  190  GLY190     -0.1940
     81  CA        59.2110   32.3930    2.0490 C.3   190  GLY190      0.2014
     82  C         59.1020   32.1950    0.5270 C.2   190  GLY190      0.2638
     83  O         60.0420   31.7190   -0.1440 O.2   190  GLY190     -0.2714
     84  N         57.9910   32.6090   -0.0530 N.am  191  VAL191     -0.1977
     85  CA        57.8310   32.4480   -1.4900 C.3   191  VAL191      0.1596
     86  C         58.4580   33.6120   -2.2620 C.2   191  VAL191      0.2287
     87  O         58.2340   33.7740   -3.4740 O.2   191  VAL191     -0.2864
     88  CB        56.3570   32.3180   -1.8240 C.3   191  VAL191      0.0276
     89  CG1       55.7460   31.2060   -0.9410 C.3   191  VAL191      0.0022
     90  CG2       55.6380   33.6590   -1.5670 C.3   191  VAL191      0.0022
     91  N         58.3530   37.3140   -1.3360 N.3   193  PRO193     -0.2102
     92  CA        57.7770   38.6720   -1.3590 C.3   193  PRO193      0.1504
     93  C         58.7740   39.8500   -1.2680 C.2   193  PRO193      0.2575
     94  O         58.6870   40.7880   -2.0640 O.2   193  PRO193     -0.2718
     95  CB        56.7890   38.6500   -0.2000 C.3   193  PRO193      0.0282
     96  CG        56.3770   37.2340   -0.1280 C.3   193  PRO193      0.0208
     97  CD        57.6560   36.4670   -0.3440 C.3   193  PRO193      0.0893
     98  N         59.7210   39.8110   -0.3200 N.am  194  PHE194     -0.1977
     99  CA        60.6740   40.9120   -0.2080 C.3   194  PHE194      0.1639
    100  C         61.6420   40.8840   -1.3770 C.2   194  PHE194      0.2290
    101  O         62.0660   41.9300   -1.9010 O.2   194  PHE194     -0.2864
    102  CB        61.4480   40.8260    1.1180 C.3   194  PHE194      0.0560
    103  CG        60.6660   41.3180    2.3030 C.ar  194  PHE194     -0.0200
    104  CD1       59.7660   40.4990    2.9500 C.ar  194  PHE194     -0.0042
    105  CD2       60.8380   42.6240    2.7650 C.ar  194  PHE194     -0.0042
    106  CE1       59.0500   40.9590    4.0480 C.ar  194  PHE194     -0.0003
    107  CE2       60.1230   43.0970    3.8690 C.ar  194  PHE194     -0.0003
    108  CZ        59.2350   42.2710    4.5120 C.ar  194  PHE194     -0.0000
    109  N         66.7480   33.1120    0.3750 N.3   207  ILE207     -0.1231
    110  CA        66.9920   31.8880    1.1210 C.3   207  ILE207      0.1692
    111  C         65.8470   31.4020    2.0000 C.2   207  ILE207      0.2592
    112  O         65.1880   32.1830    2.6920 O.2   207  ILE207     -0.2718
    113  CB        68.2310   32.1240    2.0230 C.3   207  ILE207      0.0266
    114  CG1       69.4270   32.4680    1.1430 C.3   207  ILE207      0.0019
    115  CG2       68.5100   30.9310    2.8910 C.3   207  ILE207      0.0020
    116  CD1       70.4530   33.3100    1.8540 C.3   207  ILE207      0.0001
    117  N         65.6030   30.1060    1.9950 N.am  208  ASP208     -0.1960
    118  CA        64.5790   29.5990    2.8800 C.3   208  ASP208      0.1840
    119  C         64.8670   28.1360    3.0720 C.2   208  ASP208      0.2622
    120  O         65.3830   27.4780    2.1630 O.2   208  ASP208     -0.2715
    121  CB        63.1670   29.7940    2.3000 C.3   208  ASP208      0.1450
    122  CG        62.0830   29.7130    3.3690 C.2   208  ASP208      0.3671
    123  OD1       61.7980   28.5960    3.8620 O.co2 208  ASP208     -0.2456
    124  OD2       61.5300   30.7780    3.7370 O.co2 208  ASP208     -0.2456
    125  N         64.5190   27.6410    4.2520 N.am  209  ILE209     -0.1963
    126  CA        64.7160   26.2400    4.6410 C.3   209  ILE209      0.1727
    127  C         63.5360   25.2950    4.2580 C.2   209  ILE209      0.2616
    128  O         63.6570   24.0690    4.3120 O.2   209  ILE209     -0.2715
    129  CB        64.9430   26.2000    6.1570 C.3   209  ILE209      0.0290
    130  CG1       65.5290   24.8570    6.5800 C.3   209  ILE209      0.0022
    131  CG2       63.6070   26.4890    6.8760 C.3   209  ILE209      0.0023
    132  CD1       65.9880   24.8470    8.0590 C.3   209  ILE209      0.0001
    133  N         62.4060   25.8680    3.8630 N.am  210  ASN210     -0.1972
    134  CA        61.2330   25.0910    3.4890 C.3   210  ASN210      0.1688
    135  C         61.2690   24.9300    1.9660 C.2   210  ASN210      0.2292
    136  O         61.2000   25.8950    1.2360 O.2   210  ASN210     -0.2864
    137  CB        59.9880   25.8370    3.9770 C.3   210  ASN210      0.1181
    138  CG        58.6800   25.1990    3.5420 C.2   210  ASN210      0.2629
    139  OD1       58.6050   24.4680    2.5430 O.2   210  ASN210     -0.2716
    140  ND2       57.6230   25.5210    4.2710 N.am  210  ASN210     -0.0877
    141  N         58.4130   26.2870   -0.1470 N.3   213  ALA213     -0.1245
    142  CA        58.5700   27.7440   -0.1910 C.3   213  ALA213      0.1562
    143  C         59.4960   28.0350   -1.3560 C.2   213  ALA213      0.2260
    144  O         59.2080   28.8920   -2.1830 O.2   213  ALA213     -0.2867
    145  CB        59.1860   28.2570    1.1190 C.3   213  ALA213      0.0290
    146  N         68.0890   26.0690    2.0210 N.3   235  SER235     -0.1202
    147  CA        69.0350   25.7960    3.0880 C.3   235  SER235      0.2020
    148  C         68.6810   26.5530    4.3440 C.2   235  SER235      0.2619
    149  O         67.8370   27.4540    4.3180 O.2   235  SER235     -0.2717
    150  CB        70.4500   26.2210    2.6550 C.3   235  SER235      0.2103
    151  OG        71.3520   26.3050    3.7570 O.3   235  SER235     -0.2182
    152  N         69.3200   26.1710    5.4490 N.am  236  ASP236     -0.1959
    153  CA        69.1580   26.8860    6.7030 C.3   236  ASP236      0.1840
    154  C         70.0650   28.0650    6.3990 C.2   236  ASP236      0.2622
    155  O         71.2010   27.8660    5.9480 O.2   236  ASP236     -0.2715
    156  CB        69.7480   26.0850    7.8740 C.3   236  ASP236      0.1450
    157  CG        69.8350   26.9000    9.1690 C.2   236  ASP236      0.3671
    158  OD1       70.0270   28.1390    9.1150 O.co2 236  ASP236     -0.2456
    159  OD2       69.7310   26.2990   10.2550 O.co2 236  ASP236     -0.2456
    160  N         69.5930   29.2820    6.6290 N.am  237  VAL237     -0.1963
    161  CA        70.4100   30.4540    6.3420 C.3   237  VAL237      0.1727
    162  C         71.7560   30.4630    7.0820 C.2   237  VAL237      0.2616
    163  O         72.7160   31.0790    6.6180 O.2   237  VAL237     -0.2715
    164  CB        69.6460   31.7560    6.6480 C.3   237  VAL237      0.0290
    165  CG1       69.5300   31.9580    8.1540 C.3   237  VAL237      0.0023
    166  CG2       70.3640   32.9530    5.9570 C.3   237  VAL237      0.0023
    167  N         71.8420   29.7700    8.2100 N.am  238  ARG238     -0.1977
    168  CA        73.1000   29.7360    8.9540 C.3   238  ARG238      0.1597
    169  C         74.2290   29.0860    8.1730 C.2   238  ARG238      0.2287
    170  O         75.3990   29.4210    8.3700 O.2   238  ARG238     -0.2864
    171  CB        72.9200   29.0170   10.2900 C.3   238  ARG238      0.0334
    172  CG        72.3450   29.9310   11.3490 C.3   238  ARG238      0.0492
    173  CD        71.8360   29.1850   12.5710 C.3   238  ARG238      0.2205
    174  NE        71.4830   30.1690   13.5850 N.pl3 238  ARG238     -0.0865
    175  CZ        70.4490   30.0560   14.3990 C.cat 238  ARG238      0.5346
    176  NH1       69.6670   28.9870   14.3180 N.pl3 238  ARG238      0.1354
    177  NH2       70.1830   31.0160   15.2740 N.pl3 238  ARG238      0.1354
    178  N         63.1060   39.0450    7.9460 N.3   249  ASN249     -0.1225
    179  CA        61.6820   38.9220    8.2000 C.3   249  ASN249      0.1785
    180  C         61.2740   37.6400    8.9610 C.2   249  ASN249      0.2597
    181  O         60.5840   36.8090    8.4130 O.2   249  ASN249     -0.2718
    182  CB        60.9410   38.9910    6.8640 C.3   249  ASN249      0.1169
    183  CG        59.4490   38.9340    7.0300 C.2   249  ASN249      0.2627
    184  OD1       58.7300   38.3790    6.1950 O.2   249  ASN249     -0.2716
    185  ND2       58.9650   39.5210    8.1100 N.am  249  ASN249     -0.0877
    186  N         61.6830   37.5120   10.2210 N.am  250  LEU250     -0.1966
    187  CA        61.3720   36.3480   11.0800 C.3   250  LEU250      0.1713
    188  C         61.2230   36.9680   12.4860 C.2   250  LEU250      0.2458
    189  O         62.0720   36.7810   13.3630 O.2   250  LEU250     -0.2730
    190  CB        62.5670   35.3800   11.0590 C.3   250  LEU250      0.0310
    191  CG        62.4730   34.0500   11.8170 C.3   250  LEU250      0.0022
    192  CD1       61.7110   33.0760   10.9380 C.3   250  LEU250      0.0001
    193  CD2       63.8690   33.4900   12.1300 C.3   250  LEU250      0.0001
    194  N         60.1290   37.7110   12.7110 N.am  251  PRO251     -0.2727
    195  CA        59.8230   38.4090   13.9590 C.3   251  PRO251      0.1402
    196  C         60.0830   37.7430   15.2980 C.2   251  PRO251      0.2269
    197  O         60.7380   38.3260   16.1580 O.2   251  PRO251     -0.2865
    198  CB        58.3550   38.7860   13.8020 C.3   251  PRO251      0.0296
    199  CG        58.1390   38.7720   12.3270 C.3   251  PRO251      0.0237
    200  CD        58.9200   37.6070   11.8730 C.3   251  PRO251      0.0939
    201  N         69.4950   35.4460   15.1190 N.3   257  PHE257     -0.1241
    202  CA        70.2630   35.3590   13.8900 C.3   257  PHE257      0.1605
    203  C         71.0920   36.5980   13.5720 C.2   257  PHE257      0.2264
    204  O         71.6750   36.6890   12.4950 O.2   257  PHE257     -0.2867
    205  CB        69.3030   35.0720   12.7310 C.3   257  PHE257      0.0534
    206  CG        68.7340   33.6650   12.7170 C.ar  257  PHE257     -0.0203
    207  CD1       69.3560   32.6620   11.9850 C.ar  257  PHE257     -0.0042
    208  CD2       67.5550   33.3700   13.3790 C.ar  257  PHE257     -0.0042
    209  CE1       68.8120   31.3860   11.9010 C.ar  257  PHE257     -0.0003
    210  CE2       67.0000   32.0890   13.3050 C.ar  257  PHE257     -0.0003
    211  CZ        67.6330   31.0980   12.5590 C.ar  257  PHE257     -0.0000
@<TRIPOS>BOND
     1    87    86    2
     2    86    85    1
     3   144   143    2
     4    94    93    2
     5   101   100    2
     6    88    90    1
     7    88    85    1
     8    88    89    1
     9    85    84    1
    10   100    99    1
    11    92    91    1
    12    92    93    1
    13    92    95    1
    14   143   142    1
    15    91    97    1
    16    93    98   am
    17    97    96    1
    18    98    99    1
    19    99   102    1
    20    95    96    1
    21   142   141    1
    22   142   145    1
    23    83    82    2
    24    48    47    2
    25    84    82   am
    26   109   110    1
    27    30    28   ar
    28    30    29   ar
    29    63    61   ar
    30    47    46    1
    31    82    81    1
    32    79    76    1
    33    28    26   ar
    34    49    50    1
    35    49    46    1
    36    60    61    1
    37    60    57    1
    38    51    50    1
    39    51    52    1
    40    29    27   ar
    41    78    77    2
    42   102   103    1
    43   110   111    1
    44   110   113    1
    45   114   116    1
    46   114   113    1
    47   136   135    2
    48    26    25   ar
    49    56    57    1
    50     6     5    1
    51    61    62   ar
    52     7     5    1
    53    27    25   ar
    54    46    45    1
    55    77    76    1
    56    77    80   am
    57    25    24    1
    58    52    53    2
    59    57    58    1
    60    76    75    1
    61    54    53    1
    62   135   134    1
    63   117   111   am
    64   117   118    1
    65   111   112    2
    66   146   147    1
    67   113   115    1
    68    81    80    1
    69   120   119    2
    70    59    58    2
    71     5     2    1
    72   121   118    1
    73   121   122    1
    74   103   105   ar
    75   103   104   ar
    76    53    55    1
    77    24    21    1
    78   139   138    2
    79   150   147    1
    80   150   151    1
    81   105   107   ar
    82   118   119    1
    83     1     2    1
    84   104   106   ar
    85    75    66   am
    86   119   125   am
    87   147   148    1
    88   122   124   ar
    89   122   123   ar
    90     2     3    1
    91    40    39    2
    92   134   133    1
    93   134   137    1
    94   138   137    1
    95   138   140   am
    96    39    38    1
    97   133   127   am
    98   107   108   ar
    99    21    22    1
   100    21    20    1
   101    34    33    2
   102    11    10    2
   103   106   108   ar
   104     4     3    2
   105     3     8   am
   106   125   126    1
   107   127   128    2
   108   127   126    1
   109    66    67    2
   110    66    65    1
   111   149   148    2
   112   148   152   am
   113    33    32    1
   114    22    23    2
   115    22    31   am
   116   126   129    1
   117    10    20   am
   118    10     9    1
   119    31    32    1
   120     8     9    1
   121    38    37    1
   122    38    41    1
   123    64    65    1
   124    65    68    1
   125    41    42    1
   126    32    35    1
   127   152   153    1
   128     9    12    1
   129   155   154    2
   130   166   164    1
   131   129   130    1
   132   129   131    1
   133   184   183    2
   134   161   160    1
   135   161   164    1
   136   161   162    1
   137   154   160   am
   138   154   153    1
   139   130   132    1
   140   163   162    2
   141   164   165    1
   142    35    36    1
   143   153   156    1
   144    42    44    1
   145    42    43    1
   146    68    69    1
   147   182   183    1
   148   182   179    1
   149    12    13    1
   150   183   185   am
   151   162   167   am
   152    13    14   ar
   153    13    15   ar
   154    69    70   ar
   155    69    71   ar
   156    14    16   ar
   157   156   157    1
   158   178   179    1
   159    15    17   ar
   160   169   170    2
   161   169   168    1
   162   179   180    1
   163   167   168    1
   164    70    72   ar
   165    71    73   ar
   166   181   180    2
   167    16    18   ar
   168    17    18   ar
   169   168   171    1
   170   180   186   am
   171    18    19    1
   172   158   157   ar
   173   157   159   ar
   174    72    74   ar
   175    73    74   ar
   176   186   187    1
   177   171   172    1
   178   192   191    1
   179   190   187    1
   180   190   191    1
   181   187   188    1
   182   172   173    1
   183   191   193    1
   184   200   199    1
   185   200   194    1
   186   209   207   ar
   187   209   211   ar
   188   207   206   ar
   189   199   198    1
   190   188   194   am
   191   188   189    2
   192   204   203    2
   193   211   210   ar
   194   173   174    1
   195   194   195    1
   196   206   205    1
   197   206   208   ar
   198   205   202    1
   199   210   208   ar
   200   203   202    1
   201   174   175    2
   202   198   195    1
   203   202   201    1
   204   195   196    1
   205   176   175    1
   206   175   177    1
   207   196   197    2
