@<TRIPOS>MOLECULE
tmp/2yx1B00.pdb
 211 207 0 0 0
SMALL
GASTEIGER

@<TRIPOS>ATOM
      1  N         35.7070   65.2040   47.1900 N.3   150  VAL150     -0.1231
      2  CA        34.8070   64.1290   47.5880 C.3   150  VAL150      0.1692
      3  C         35.5340   62.9760   48.2890 C.2   150  VAL150      0.2592
      4  O         36.7520   62.8420   48.1870 O.2   150  VAL150     -0.2718
      5  CB        34.0540   63.5560   46.3630 C.3   150  VAL150      0.0266
      6  CG1       33.4190   64.6860   45.5700 C.3   150  VAL150      0.0020
      7  CG2       35.0060   62.7420   45.4950 C.3   150  VAL150      0.0020
      8  N         34.7800   62.1540   49.0120 N.am  151  TYR151     -0.1962
      9  CA        35.3540   60.9960   49.6860 C.3   151  TYR151      0.1771
     10  C         35.3580   59.8630   48.6610 C.2   151  TYR151      0.2620
     11  O         34.4080   59.7180   47.9040 O.2   151  TYR151     -0.2715
     12  CB        34.4710   60.5130   50.8540 C.3   151  TYR151      0.0574
     13  CG        34.3660   61.3890   52.0850 C.ar  151  TYR151     -0.0198
     14  CD1       35.4980   61.7170   52.8410 C.ar  151  TYR151     -0.0009
     15  CD2       33.1130   61.8340   52.5390 C.ar  151  TYR151     -0.0009
     16  CE1       35.3850   62.4650   54.0240 C.ar  151  TYR151      0.0417
     17  CE2       32.9860   62.5770   53.7100 C.ar  151  TYR151      0.0417
     18  CZ        34.1240   62.8900   54.4490 C.ar  151  TYR151      0.1957
     19  OH        34.0070   63.6300   55.6080 O.3   151  TYR151     -0.2866
     20  N         36.4220   59.0800   48.6070 N.am  152  PHE152     -0.1960
     21  CA        36.4250   57.9230   47.7260 C.3   152  PHE152      0.1771
     22  C         37.4420   56.9220   48.2140 C.2   152  PHE152      0.2620
     23  O         38.5880   57.2780   48.4670 O.2   152  PHE152     -0.2715
     24  CB        36.7610   58.2400   46.2760 C.3   152  PHE152      0.0574
     25  CG        36.8040   57.0080   45.4160 C.ar  152  PHE152     -0.0200
     26  CD1       35.6210   56.3460   45.0700 C.ar  152  PHE152     -0.0042
     27  CD2       38.0170   56.4450   45.0330 C.ar  152  PHE152     -0.0042
     28  CE1       35.6420   55.1350   44.3610 C.ar  152  PHE152     -0.0003
     29  CE2       38.0520   55.2320   44.3240 C.ar  152  PHE152     -0.0003
     30  CZ        36.8600   54.5760   43.9910 C.ar  152  PHE152     -0.0000
     31  N         37.0260   55.6700   48.3430 N.am  153  SER153     -0.1950
     32  CA        37.9470   54.6470   48.7910 C.3   153  SER153      0.1924
     33  C         38.1370   53.5600   47.7500 C.2   153  SER153      0.2314
     34  O         37.2090   52.8150   47.4350 O.2   153  SER153     -0.2863
     35  CB        37.4560   54.0150   50.1020 C.3   153  SER153      0.2116
     36  OG        38.3750   53.0450   50.5790 O.3   153  SER153     -0.2180
     37  N         37.3010   49.8720   48.6720 N.3   156  LEU156     -0.1245
     38  CA        35.9740   49.2880   48.6780 C.3   156  LEU156      0.1561
     39  C         35.6160   48.5940   47.3670 C.2   156  LEU156      0.2260
     40  O         34.4530   48.2450   47.1500 O.2   156  LEU156     -0.2867
     41  CB        34.9340   50.3600   48.9450 C.3   156  LEU156      0.0270
     42  CG        34.4160   50.4540   50.3720 C.3   156  LEU156      0.0019
     43  CD1       35.5830   50.5540   51.3590 C.3   156  LEU156      0.0001
     44  CD2       33.5250   51.6770   50.4640 C.3   156  LEU156      0.0001
     45  N         32.2550   46.5060   46.3470 N.3   160  ARG160     -0.1245
     46  CA        31.3910   46.9490   45.2560 C.3   160  ARG160      0.1563
     47  C         31.1300   45.8110   44.3140 C.2   160  ARG160      0.2260
     48  O         30.0320   45.7000   43.7770 O.2   160  ARG160     -0.2867
     49  CB        32.0290   48.0760   44.4660 C.3   160  ARG160      0.0307
     50  CG        31.6850   49.4370   45.0080 C.3   160  ARG160      0.0489
     51  CD        32.7030   50.4340   44.5510 C.3   160  ARG160      0.2205
     52  NE        32.7830   51.4300   45.5700 N.pl3 160  ARG160     -0.0865
     53  CZ        33.9050   51.9600   45.9930 C.cat 160  ARG160      0.5346
     54  NH1       35.0600   51.5950   45.4580 N.pl3 160  ARG160      0.1354
     55  NH2       33.8520   52.8140   46.9990 N.pl3 160  ARG160      0.1354
     56  N         20.6680   54.1490   46.2630 N.3   174  ASP174     -0.1239
     57  CA        22.0110   54.3840   46.8160 C.3   174  ASP174      0.1674
     58  C         21.9040   55.6620   47.6440 C.2   174  ASP174      0.2266
     59  O         22.0790   56.7630   47.1240 O.2   174  ASP174     -0.2867
     60  CB        23.0210   54.5470   45.6550 C.3   174  ASP174      0.1410
     61  CG        24.4830   54.5800   46.1230 C.2   174  ASP174      0.3668
     62  OD1       24.7150   54.6660   47.3450 O.co2 174  ASP174     -0.2456
     63  OD2       25.4020   54.5460   45.2520 O.co2 174  ASP174     -0.2456
     64  N         23.7640   57.1030   49.9530 N.3   175  PHE175     -0.1227
     65  CA        24.9550   57.9560   50.0830 C.3   175  PHE175      0.1736
     66  C         25.8740   57.5800   48.9340 C.2   175  PHE175      0.2595
     67  O         26.8760   56.8840   49.1160 O.2   175  PHE175     -0.2718
     68  CB        25.6280   57.7070   51.4340 C.3   175  PHE175      0.0547
     69  CG        24.6490   57.6540   52.5950 C.ar  175  PHE175     -0.0202
     70  CD1       24.0530   58.8160   53.0810 C.ar  175  PHE175     -0.0042
     71  CD2       24.2830   56.4360   53.1640 C.ar  175  PHE175     -0.0042
     72  CE1       23.0980   58.7650   54.1200 C.ar  175  PHE175     -0.0003
     73  CE2       23.3340   56.3760   54.1980 C.ar  175  PHE175     -0.0003
     74  CZ        22.7400   57.5470   54.6760 C.ar  175  PHE175     -0.0000
     75  N         25.5310   58.0830   47.7450 N.am  176  ALA176     -0.1966
     76  CA        26.2340   57.7530   46.5040 C.3   176  ALA176      0.1728
     77  C         27.6400   58.2560   46.2170 C.2   176  ALA176      0.2617
     78  O         28.3910   57.5940   45.4810 O.2   176  ALA176     -0.2715
     79  CB        25.3450   58.1240   45.3460 C.3   176  ALA176      0.0334
     80  N         28.0140   59.4010   46.7840 N.am  177  GLY177     -0.1940
     81  CA        29.3230   59.9520   46.4570 C.3   177  GLY177      0.2014
     82  C         29.3480   60.1920   44.9430 C.2   177  GLY177      0.2638
     83  O         28.3730   60.6990   44.3620 O.2   177  GLY177     -0.2714
     84  N         30.4320   59.7950   44.2810 N.am  178  VAL178     -0.1977
     85  CA        30.5260   59.9810   42.8360 C.3   178  VAL178      0.1596
     86  C         29.7900   58.8510   42.1080 C.2   178  VAL178      0.2287
     87  O         29.8570   58.7370   40.8750 O.2   178  VAL178     -0.2864
     88  CB        32.0010   59.9930   42.3590 C.3   178  VAL178      0.0276
     89  CG1       32.7830   61.0440   43.1110 C.3   178  VAL178      0.0022
     90  CG2       32.6340   58.5910   42.5240 C.3   178  VAL178      0.0022
     91  N         30.1430   55.2400   42.8910 N.3   180  PRO180     -0.2102
     92  CA        30.7130   53.8980   42.7120 C.3   180  PRO180      0.1504
     93  C         29.7300   52.7180   42.8000 C.2   180  PRO180      0.2575
     94  O         29.7330   51.8570   41.9160 O.2   180  PRO180     -0.2718
     95  CB        31.7980   53.8340   43.7850 C.3   180  PRO180      0.0282
     96  CG        32.2850   55.2480   43.8320 C.3   180  PRO180      0.0208
     97  CD        30.9660   56.0280   43.8300 C.3   180  PRO180      0.0893
     98  N         28.8990   52.6710   43.8450 N.am  181  PHE181     -0.1977
     99  CA        27.9310   51.5780   43.9790 C.3   181  PHE181      0.1639
    100  C         26.8180   51.6690   42.9170 C.2   181  PHE181      0.2290
    101  O         26.3350   50.6510   42.4190 O.2   181  PHE181     -0.2864
    102  CB        27.2750   51.5560   45.3800 C.3   181  PHE181      0.0560
    103  CG        28.1640   51.0250   46.4870 C.ar  181  PHE181     -0.0200
    104  CD1       29.0630   51.8560   47.1450 C.ar  181  PHE181     -0.0042
    105  CD2       28.0950   49.6840   46.8730 C.ar  181  PHE181     -0.0042
    106  CE1       29.8850   51.3770   48.1710 C.ar  181  PHE181     -0.0003
    107  CE2       28.9120   49.1930   47.9000 C.ar  181  PHE181     -0.0003
    108  CZ        29.8060   50.0460   48.5460 C.ar  181  PHE181     -0.0000
    109  N         21.7440   59.1730   45.3900 N.3   194  ILE194     -0.1231
    110  CA        21.5710   60.3410   46.2470 C.3   194  ILE194      0.1692
    111  C         22.8230   60.7520   47.0050 C.2   194  ILE194      0.2592
    112  O         23.6080   59.9030   47.4440 O.2   194  ILE194     -0.2718
    113  CB        20.4580   60.0420   47.2820 C.3   194  ILE194      0.0266
    114  CG1       19.2090   59.5720   46.5370 C.3   194  ILE194      0.0019
    115  CG2       20.1600   61.2760   48.1580 C.3   194  ILE194      0.0020
    116  CD1       18.1300   59.0220   47.4260 C.3   194  ILE194      0.0001
    117  N         23.0150   62.0640   47.1380 N.am  195  ASP195     -0.1960
    118  CA        24.1190   62.6170   47.9060 C.3   195  ASP195      0.1840
    119  C         23.8320   64.0810   48.2060 C.2   195  ASP195      0.2622
    120  O         23.2070   64.7940   47.4010 O.2   195  ASP195     -0.2715
    121  CB        25.4770   62.4680   47.2020 C.3   195  ASP195      0.1450
    122  CG        26.6580   62.4190   48.2150 C.2   195  ASP195      0.3671
    123  OD1       26.9620   63.4380   48.8770 O.co2 195  ASP195     -0.2456
    124  OD2       27.2720   61.3480   48.3650 O.co2 195  ASP195     -0.2456
    125  N         24.2900   64.5150   49.3780 N.am  196  ILE196     -0.1963
    126  CA        24.0800   65.8820   49.8450 C.3   196  ILE196      0.1727
    127  C         25.2170   66.8260   49.4370 C.2   196  ILE196      0.2616
    128  O         25.1240   68.0390   49.5970 O.2   196  ILE196     -0.2715
    129  CB        23.9150   65.8970   51.3780 C.3   196  ILE196      0.0290
    130  CG1       23.3010   67.2270   51.8190 C.3   196  ILE196      0.0022
    131  CG2       25.2900   65.7150   52.0600 C.3   196  ILE196      0.0023
    132  CD1       22.9450   67.2620   53.3030 C.3   196  ILE196      0.0001
    133  N         26.2890   66.2610   48.9060 N.am  197  ASN197     -0.1972
    134  CA        27.4460   67.0240   48.4480 C.3   197  ASN197      0.1688
    135  C         27.2620   67.3650   46.9620 C.2   197  ASN197      0.2292
    136  O         27.2840   66.4780   46.1120 O.2   197  ASN197     -0.2864
    137  CB        28.7100   66.1850   48.6310 C.3   197  ASN197      0.1181
    138  CG        29.9800   66.8920   48.1570 C.2   197  ASN197      0.2629
    139  OD1       29.9400   67.7690   47.2930 O.2   197  ASN197     -0.2716
    140  ND2       31.1240   66.4830   48.7120 N.am  197  ASN197     -0.0877
    141  N         29.8810   66.0630   44.6380 N.3   200  ALA200     -0.1245
    142  CA        29.7770   64.6210   44.4660 C.3   200  ALA200      0.1562
    143  C         28.7310   64.3710   43.3750 C.2   200  ALA200      0.2260
    144  O         28.9250   63.5400   42.4900 O.2   200  ALA200     -0.2867
    145  CB        29.3530   63.9370   45.7900 C.3   200  ALA200      0.0290
    146  N         20.5270   66.0530   47.6170 N.3   222  SER222     -0.1202
    147  CA        19.6390   66.2130   48.7590 C.3   222  SER222      0.2020
    148  C         20.0920   65.4280   49.9960 C.2   222  SER222      0.2619
    149  O         20.8930   64.4880   49.8870 O.2   222  SER222     -0.2717
    150  CB        18.2390   65.7260   48.3660 C.3   222  SER222      0.2103
    151  OG        17.3570   65.6960   49.4760 O.3   222  SER222     -0.2182
    152  N         19.5990   65.8410   51.1690 N.am  223  ASP223     -0.1959
    153  CA        19.8660   65.1010   52.3960 C.3   223  ASP223      0.1840
    154  C         18.9250   63.9400   52.1110 C.2   223  ASP223      0.2622
    155  O         17.7460   64.1500   51.8410 O.2   223  ASP223     -0.2715
    156  CB        19.3630   65.8480   53.6330 C.3   223  ASP223      0.1450
    157  CG        19.4430   65.0010   54.8970 C.2   223  ASP223      0.3671
    158  OD1       19.0910   63.8070   54.8300 O.co2 223  ASP223     -0.2456
    159  OD2       19.8490   65.5180   55.9620 O.co2 223  ASP223     -0.2456
    160  N         19.4290   62.7230   52.1390 N.am  224  VAL224     -0.1963
    161  CA        18.5860   61.5770   51.8370 C.3   224  VAL224      0.1727
    162  C         17.2850   61.5100   52.6530 C.2   224  VAL224      0.2616
    163  O         16.2930   60.9730   52.1830 O.2   224  VAL224     -0.2715
    164  CB        19.3920   60.2500   52.0090 C.3   224  VAL224      0.0290
    165  CG1       19.8280   60.0690   53.4570 C.3   224  VAL224      0.0023
    166  CG2       18.5520   59.0860   51.5570 C.3   224  VAL224      0.0023
    167  N         17.2840   62.0500   53.8680 N.am  225  ARG225     -0.1977
    168  CA        16.0920   62.0340   54.7090 C.3   225  ARG225      0.1597
    169  C         14.9090   62.7400   54.0620 C.2   225  ARG225      0.2287
    170  O         13.7680   62.4540   54.3940 O.2   225  ARG225     -0.2864
    171  CB        16.3740   62.7060   56.0530 C.3   225  ARG225      0.0334
    172  CG        17.2200   61.8980   57.0060 C.3   225  ARG225      0.0492
    173  CD        17.9720   62.8470   57.9150 C.3   225  ARG225      0.2205
    174  NE        18.5900   62.1530   59.0290 N.pl3 225  ARG225     -0.0865
    175  CZ        19.6060   62.6440   59.7280 C.cat 225  ARG225      0.5346
    176  NH1       20.1070   63.8340   59.4170 N.pl3 225  ARG225      0.1354
    177  NH2       20.1220   61.9430   60.7340 N.pl3 225  ARG225      0.1354
    178  N         26.0660   53.0800   52.5060 N.3   236  ASN236     -0.1225
    179  CA        27.5150   53.2210   52.6410 C.3   236  ASN236      0.1785
    180  C         28.0000   54.4830   53.4070 C.2   236  ASN236      0.2597
    181  O         28.6420   55.3780   52.8340 O.2   236  ASN236     -0.2718
    182  CB        28.1190   53.1830   51.2420 C.3   236  ASN236      0.1169
    183  CG        29.6160   53.1650   51.2590 C.2   236  ASN236      0.2627
    184  OD1       30.2820   53.8160   50.4320 O.2   236  ASN236     -0.2716
    185  ND2       30.1700   52.4100   52.2010 N.am  236  ASN236     -0.0877
    186  N         27.7290   54.5210   54.7070 N.am  237  LEU237     -0.1966
    187  CA        28.0800   55.6520   55.5760 C.3   237  LEU237      0.1713
    188  C         28.4260   54.9870   56.9250 C.2   237  LEU237      0.2458
    189  O         27.7660   55.2040   57.9370 O.2   237  LEU237     -0.2730
    190  CB        26.8240   56.5060   55.6950 C.3   237  LEU237      0.0310
    191  CG        26.8860   57.8790   56.3400 C.3   237  LEU237      0.0022
    192  CD1       27.6220   58.8350   55.4130 C.3   237  LEU237      0.0001
    193  CD2       25.4730   58.3550   56.6060 C.3   237  LEU237      0.0001
    194  N         29.4960   54.1850   56.9500 N.am  238  PRO238     -0.2727
    195  CA        29.9080   53.4640   58.1530 C.3   238  PRO238      0.1402
    196  C         29.8290   54.1410   59.5150 C.2   238  PRO238      0.2269
    197  O         29.2690   53.5750   60.4520 O.2   238  PRO238     -0.2865
    198  CB        31.2930   52.9340   57.7810 C.3   238  PRO238      0.0296
    199  CG        31.8060   53.9550   56.8530 C.3   238  PRO238      0.0237
    200  CD        30.6160   54.2960   55.9970 C.3   238  PRO238      0.0939
    201  N         20.3530   56.2720   60.2470 N.3   244  PHE244     -0.1241
    202  CA        19.4820   56.3440   59.0890 C.3   244  PHE244      0.1605
    203  C         18.6050   55.1410   58.8000 C.2   244  PHE244      0.2264
    204  O         17.8370   55.1500   57.8410 O.2   244  PHE244     -0.2867
    205  CB        20.3180   56.6900   57.8480 C.3   244  PHE244      0.0534
    206  CG        20.9340   58.0620   57.8960 C.ar  244  PHE244     -0.0203
    207  CD1       22.1670   58.2670   58.5000 C.ar  244  PHE244     -0.0042
    208  CD2       20.2830   59.1450   57.3290 C.ar  244  PHE244     -0.0042
    209  CE1       22.7520   59.5410   58.5330 C.ar  244  PHE244     -0.0003
    210  CE2       20.8580   60.4330   57.3550 C.ar  244  PHE244     -0.0003
    211  CZ        22.0950   60.6240   57.9570 C.ar  244  PHE244     -0.0000
@<TRIPOS>BOND
     1    87    86    2
     2    94    93    2
     3    86    85    1
     4    88    90    1
     5    88    85    1
     6    88    89    1
     7   101   100    2
     8   144   143    2
     9    92    93    1
    10    92    91    1
    11    92    95    1
    12    93    98   am
    13    85    84    1
    14    91    97    1
    15   100    99    1
    16   143   142    1
    17    48    47    2
    18    95    96    1
    19    97    96    1
    20    98    99    1
    21    99   102    1
    22    30    29   ar
    23    30    28   ar
    24    84    82   am
    25    47    46    1
    26    29    27   ar
    27    28    26   ar
    28    83    82    2
    29    49    50    1
    30    49    46    1
    31   142   141    1
    32   142   145    1
    33    51    50    1
    34    51    52    1
    35    82    81    1
    36    27    25   ar
    37    26    25   ar
    38    63    61   ar
    39    46    45    1
    40    79    76    1
    41   102   103    1
    42   109   110    1
    43    25    24    1
    44    54    53    1
    45    78    77    2
    46     7     5    1
    47     6     5    1
    48    52    53    2
    49    60    61    1
    50    60    57    1
    51    53    55    1
    52   136   135    2
    53    61    62   ar
    54    77    76    1
    55    77    80   am
    56   110   111    1
    57   110   113    1
    58    56    57    1
    59    24    21    1
    60     5     2    1
    61    81    80    1
    62   103   105   ar
    63   103   104   ar
    64    76    75    1
    65   114   113    1
    66   114   116    1
    67    57    58    1
    68   105   107   ar
    69   135   134    1
    70   111   117   am
    71   111   112    2
    72    59    58    2
    73   117   118    1
    74   104   106   ar
    75    40    39    2
    76     1     2    1
    77   121   118    1
    78   121   122    1
    79   113   115    1
    80   139   138    2
    81    39    38    1
    82   120   119    2
    83    34    33    2
    84     2     3    1
    85   146   147    1
    86    21    22    1
    87    21    20    1
    88    75    66   am
    89    33    32    1
    90   107   108   ar
    91    11    10    2
    92   118   119    1
    93   138   137    1
    94   138   140   am
    95   106   108   ar
    96     4     3    2
    97   119   125   am
    98    22    31   am
    99    22    23    2
   100   122   124   ar
   101   122   123   ar
   102     3     8   am
   103    31    32    1
   104   150   147    1
   105   150   151    1
   106   134   137    1
   107   134   133    1
   108    20    10   am
   109    10     9    1
   110    37    38    1
   111    38    41    1
   112   147   148    1
   113    32    35    1
   114   133   127   am
   115    66    67    2
   116    66    65    1
   117    41    42    1
   118     8     9    1
   119   125   126    1
   120   127   128    2
   121   127   126    1
   122     9    12    1
   123   126   129    1
   124   149   148    2
   125    64    65    1
   126   148   152   am
   127    65    68    1
   128    35    36    1
   129    42    44    1
   130    42    43    1
   131   184   183    2
   132    12    13    1
   133   152   153    1
   134   182   183    1
   135   182   179    1
   136   183   185   am
   137   129   130    1
   138   129   131    1
   139    68    69    1
   140   166   164    1
   141   130   132    1
   142   161   164    1
   143   161   160    1
   144   161   162    1
   145   155   154    2
   146   164   165    1
   147    13    15   ar
   148    13    14   ar
   149   154   160   am
   150   154   153    1
   151   163   162    2
   152   153   156    1
   153   178   179    1
   154    15    17   ar
   155    69    70   ar
   156    69    71   ar
   157   179   180    1
   158   162   167   am
   159   181   180    2
   160    14    16   ar
   161    70    72   ar
   162    71    73   ar
   163   180   186   am
   164   156   157    1
   165    17    18   ar
   166   167   168    1
   167    16    18   ar
   168   169   170    2
   169   169   168    1
   170    72    74   ar
   171    73    74   ar
   172    18    19    1
   173   186   187    1
   174   168   171    1
   175   158   157   ar
   176   157   159   ar
   177   192   191    1
   178   187   190    1
   179   187   188    1
   180   190   191    1
   181   200   199    1
   182   200   194    1
   183   171   172    1
   184   191   193    1
   185   199   198    1
   186   188   194   am
   187   188   189    2
   188   194   195    1
   189   172   173    1
   190   208   210   ar
   191   208   206   ar
   192   210   211   ar
   193   198   195    1
   194   204   203    2
   195   205   206    1
   196   205   202    1
   197   206   207   ar
   198   173   174    1
   199   211   209   ar
   200   195   196    1
   201   207   209   ar
   202   203   202    1
   203   174   175    2
   204   202   201    1
   205   176   175    1
   206   196   197    2
   207   175   177    1
