@<TRIPOS>MOLECULE
tmp/2yxjB00.pdb
 202 197 0 0 0
SMALL
GASTEIGER

@<TRIPOS>ATOM
      1  N        -14.7930  -32.6790  -35.1270 N.3    39  ALA39      -0.1245
      2  CA       -13.9580  -33.5750  -34.3440 C.3    39  ALA39       0.1562
      3  C        -14.7590  -34.1480  -33.1740 C.2    39  ALA39       0.2260
      4  O        -14.5730  -35.2920  -32.8100 O.2    39  ALA39      -0.2867
      5  CB       -12.7240  -32.8330  -33.8340 C.3    39  ALA39       0.0290
      6  N        -17.0220  -36.8700  -34.3300 N.3    42  GLU42      -0.1231
      7  CA       -16.2310  -38.0490  -34.6360 C.3    42  GLU42       0.1699
      8  C        -15.8290  -38.8080  -33.3980 C.2    42  GLU42       0.2592
      9  O        -15.9370  -40.0270  -33.3410 O.2    42  GLU42      -0.2718
     10  CB       -14.9570  -37.6350  -35.3690 C.3    42  GLU42       0.0402
     11  CG       -15.1380  -37.4650  -36.8270 C.3    42  GLU42       0.1161
     12  CD       -13.8080  -37.4460  -37.5700 C.2    42  GLU42       0.3649
     13  OE1      -13.1340  -38.5020  -37.5600 O.co2  42  GLU42      -0.2457
     14  OE2      -13.4480  -36.3740  -38.1280 O.co2  42  GLU42      -0.2457
     15  N        -15.2790  -38.0680  -32.4480 N.am   43  PHE43      -0.1976
     16  CA       -14.8890  -38.6100  -31.1790 C.3    43  PHE43       0.1639
     17  C        -16.1000  -39.3310  -30.5970 C.2    43  PHE43       0.2290
     18  O        -16.0090  -40.4700  -30.1560 O.2    43  PHE43      -0.2864
     19  CB       -14.4090  -37.4850  -30.2310 C.3    43  PHE43       0.0560
     20  CG       -14.1900  -37.9620  -28.8170 C.ar   43  PHE43      -0.0200
     21  CD1      -15.1600  -37.7490  -27.8360 C.ar   43  PHE43      -0.0042
     22  CD2      -13.0610  -38.6830  -28.4920 C.ar   43  PHE43      -0.0042
     23  CE1      -14.9920  -38.2380  -26.5490 C.ar   43  PHE43      -0.0003
     24  CE2      -12.8760  -39.1620  -27.2230 C.ar   43  PHE43      -0.0003
     25  CZ       -13.8570  -38.9460  -26.2400 C.ar   43  PHE43      -0.0000
     26  N        -16.7960  -42.6760  -32.2610 N.3    46  ARG46      -0.1231
     27  CA       -15.7490  -43.6850  -32.0650 C.3    46  ARG46       0.1694
     28  C        -15.7890  -44.1620  -30.6200 C.2    46  ARG46       0.2592
     29  O        -15.6510  -45.3350  -30.3440 O.2    46  ARG46      -0.2718
     30  CB       -14.3870  -43.0840  -32.4030 C.3    46  ARG46       0.0321
     31  CG       -13.2140  -44.0400  -32.3660 C.3    46  ARG46       0.0489
     32  CD       -11.9260  -43.2910  -32.7560 C.3    46  ARG46       0.2205
     33  NE       -11.0380  -44.0870  -33.6080 N.pl3  46  ARG46      -0.0865
     34  CZ       -10.0420  -43.6000  -34.3570 C.cat  46  ARG46       0.5346
     35  NH1       -9.7680  -42.2920  -34.3780 N.pl3  46  ARG46       0.1354
     36  NH2       -9.3040  -44.4360  -35.0960 N.pl3  46  ARG46       0.1354
     37  N        -16.0180  -43.2290  -29.7120 N.am   47  TYR47      -0.1976
     38  CA       -16.0190  -43.4920  -28.2680 C.3    47  TYR47       0.1639
     39  C        -17.4240  -43.4800  -27.6630 C.2    47  TYR47       0.2290
     40  O        -17.6470  -43.0590  -26.5380 O.2    47  TYR47      -0.2864
     41  CB       -15.0720  -42.4930  -27.5960 C.3    47  TYR47       0.0560
     42  CG       -13.6450  -42.8310  -27.9730 C.ar   47  TYR47      -0.0198
     43  CD1      -12.9900  -43.9310  -27.3870 C.ar   47  TYR47      -0.0009
     44  CD2      -12.9790  -42.1180  -28.9530 C.ar   47  TYR47      -0.0009
     45  CE1      -11.6860  -44.2740  -27.7550 C.ar   47  TYR47       0.0417
     46  CE2      -11.6760  -42.4640  -29.3270 C.ar   47  TYR47       0.0417
     47  CZ       -11.0400  -43.5390  -28.7260 C.ar   47  TYR47       0.1957
     48  OH        -9.7560  -43.8690  -29.1170 O.3    47  TYR47      -0.2866
     49  N        -17.7550  -45.5030  -24.2030 N.3    50  ALA50      -0.1231
     50  CA       -17.2810  -44.6540  -23.1210 C.3    50  ALA50       0.1694
     51  C        -18.2310  -43.4930  -22.8180 C.2    50  ALA50       0.2592
     52  O        -18.4240  -43.1360  -21.6810 O.2    50  ALA50      -0.2718
     53  CB       -15.9100  -44.1100  -23.4750 C.3    50  ALA50       0.0304
     54  N        -18.8110  -42.9170  -23.8590 N.am   51  PHE51      -0.1976
     55  CA       -19.7950  -41.8410  -23.7290 C.3    51  PHE51       0.1639
     56  C        -20.9850  -42.3040  -22.9140 C.2    51  PHE51       0.2290
     57  O        -21.3700  -41.6500  -21.9450 O.2    51  PHE51      -0.2864
     58  CB       -20.2530  -41.3940  -25.1170 C.3    51  PHE51       0.0560
     59  CG       -21.1310  -40.1920  -25.1200 C.ar   51  PHE51      -0.0200
     60  CD1      -20.7070  -39.0100  -25.7490 C.ar   51  PHE51      -0.0042
     61  CD2      -22.4020  -40.2310  -24.5340 C.ar   51  PHE51      -0.0042
     62  CE1      -21.5060  -37.8870  -25.7790 C.ar   51  PHE51      -0.0003
     63  CE2      -23.2190  -39.1030  -24.5390 C.ar   51  PHE51      -0.0003
     64  CZ       -22.7660  -37.9200  -25.1800 C.ar   51  PHE51      -0.0000
     65  N        -20.1780  -43.4260  -19.2050 N.3    54  LEU54      -0.1245
     66  CA       -19.9990  -42.2580  -18.3720 C.3    54  LEU54       0.1561
     67  C        -21.3170  -41.6660  -17.9150 C.2    54  LEU54       0.2260
     68  O        -21.5020  -41.3840  -16.7330 O.2    54  LEU54      -0.2867
     69  CB       -19.2300  -41.1950  -19.1480 C.3    54  LEU54       0.0270
     70  CG       -18.8550  -39.9210  -18.3810 C.3    54  LEU54       0.0019
     71  CD1      -17.9720  -40.2510  -17.1730 C.3    54  LEU54       0.0001
     72  CD2      -18.1610  -38.9880  -19.3140 C.3    54  LEU54       0.0001
     73  N        -13.8410  -35.8320  -13.4380 N.3    72  VAL72      -0.1245
     74  CA       -13.7200  -36.5020  -14.7260 C.3    72  VAL72       0.1561
     75  C        -12.6430  -35.7690  -15.5360 C.2    72  VAL72       0.2260
     76  O        -11.8050  -36.3890  -16.1500 O.2    72  VAL72      -0.2867
     77  CB       -15.0940  -36.5220  -15.4710 C.3    72  VAL72       0.0252
     78  CG1      -14.8910  -36.7840  -16.9300 C.3    72  VAL72       0.0019
     79  CG2      -16.0290  -37.5260  -14.8490 C.3    72  VAL72       0.0019
     80  N         -9.1990  -36.7470  -14.3200 N.3    75  GLU75      -0.1231
     81  CA        -8.9010  -38.0390  -14.9300 C.3    75  GLU75       0.1699
     82  C         -8.5060  -37.8940  -16.3910 C.2    75  GLU75       0.2592
     83  O         -7.5400  -38.5000  -16.8390 O.2    75  GLU75      -0.2718
     84  CB       -10.1190  -38.9360  -14.8370 C.3    75  GLU75       0.0402
     85  CG        -9.7910  -40.3960  -14.6680 C.3    75  GLU75       0.1161
     86  CD       -11.0380  -41.2020  -14.3410 C.2    75  GLU75       0.3649
     87  OE1      -11.6640  -40.9130  -13.2750 O.co2  75  GLU75      -0.2457
     88  OE2      -11.4080  -42.0930  -15.1640 O.co2  75  GLU75      -0.2457
     89  N         -9.2420  -37.0810  -17.1320 N.am   76  LEU76      -0.1980
     90  CA        -9.0030  -36.9270  -18.5610 C.3    76  LEU76       0.1596
     91  C         -7.6080  -36.4100  -18.8900 C.2    76  LEU76       0.2287
     92  O         -7.0510  -36.7590  -19.9220 O.2    76  LEU76      -0.2864
     93  CB       -10.0630  -35.9970  -19.1950 C.3    76  LEU76       0.0297
     94  CG        -9.9690  -35.6750  -20.7020 C.3    76  LEU76       0.0022
     95  CD1       -9.9340  -36.9370  -21.5410 C.3    76  LEU76       0.0001
     96  CD2      -11.1180  -34.7990  -21.1440 C.3    76  LEU76       0.0001
     97  N         -3.2450  -33.5990  -24.8700 N.3    82  ASN82      -0.1225
     98  CA        -3.0450  -33.6160  -26.3110 C.3    82  ASN82       0.1785
     99  C         -4.3400  -33.1470  -26.9470 C.2    82  ASN82       0.2597
    100  O         -5.3150  -32.8910  -26.2240 O.2    82  ASN82      -0.2718
    101  CB        -2.6740  -35.0060  -26.7980 C.3    82  ASN82       0.1169
    102  CG        -3.7310  -36.0380  -26.4850 C.2    82  ASN82       0.2627
    103  OD1       -4.9310  -35.8130  -26.6910 O.2    82  ASN82      -0.2716
    104  ND2       -3.2920  -37.1800  -25.9700 N.am   82  ASN82      -0.0877
    105  N         -4.3750  -33.0330  -28.2770 N.am   83  TRP83      -0.1962
    106  CA        -5.5350  -32.4220  -28.9310 C.3    83  TRP83       0.1771
    107  C         -6.7880  -33.2790  -28.7850 C.2    83  TRP83       0.2620
    108  O         -7.8850  -32.7400  -28.6140 O.2    83  TRP83      -0.2715
    109  CB        -5.2850  -32.1050  -30.4120 C.3    83  TRP83       0.0590
    110  CG        -4.4150  -30.8680  -30.7090 C.ar   83  TRP83       0.0006
    111  CD1       -3.1820  -30.8650  -31.3170 C.ar   83  TRP83       0.0946
    112  CD2       -4.7230  -29.4840  -30.4350 C.ar   83  TRP83       0.0152
    113  NE1       -2.7180  -29.5830  -31.4350 N.ar   83  TRP83      -0.2442
    114  CE2       -3.6350  -28.7170  -30.8980 C.ar   83  TRP83       0.0810
    115  CE3       -5.8100  -28.8230  -29.8470 C.ar   83  TRP83       0.0012
    116  CZ2       -3.6090  -27.3220  -30.8060 C.ar   83  TRP83       0.0191
    117  CZ3       -5.7810  -27.4450  -29.7500 C.ar   83  TRP83       0.0001
    118  CH2       -4.6880  -26.7070  -30.2260 C.ar   83  TRP83       0.0015
    119  N         -6.6250  -34.5950  -28.8270 N.am   84  GLY84      -0.1940
    120  CA        -7.7630  -35.5000  -28.7090 C.3    84  GLY84       0.2014
    121  C         -8.4530  -35.3590  -27.3550 C.2    84  GLY84       0.2638
    122  O         -9.6760  -35.3930  -27.2670 O.2    84  GLY84      -0.2714
    123  N         -7.6510  -35.1790  -26.3090 N.am   85  ARG85      -0.1977
    124  CA        -8.1470  -35.0340  -24.9390 C.3    85  ARG85       0.1597
    125  C         -8.9040  -33.7300  -24.7760 C.2    85  ARG85       0.2287
    126  O         -9.8940  -33.6780  -24.0750 O.2    85  ARG85      -0.2864
    127  CB        -6.9950  -35.1680  -23.9180 C.3    85  ARG85       0.0334
    128  CG        -6.5760  -36.6290  -23.6580 C.3    85  ARG85       0.0492
    129  CD        -5.2200  -36.6910  -22.9410 C.3    85  ARG85       0.2205
    130  NE        -4.5940  -38.0250  -22.9610 N.pl3  85  ARG85      -0.0865
    131  CZ        -3.2690  -38.2750  -22.9220 C.cat  85  ARG85       0.5346
    132  NH1       -2.3760  -37.2910  -22.8830 N.pl3  85  ARG85       0.1354
    133  NH2       -2.8440  -39.5340  -22.9410 N.pl3  85  ARG85       0.1354
    134  N        -10.5870  -32.2880  -27.3150 N.3    87  VAL87      -0.1231
    135  CA       -11.8690  -32.5670  -27.9710 C.3    87  VAL87       0.1692
    136  C        -12.7950  -33.3290  -27.0220 C.2    87  VAL87       0.2591
    137  O        -13.9600  -32.9630  -26.8840 O.2    87  VAL87      -0.2718
    138  CB       -11.6980  -33.3700  -29.3060 C.3    87  VAL87       0.0266
    139  CG1      -13.0440  -33.6710  -29.9190 C.3    87  VAL87       0.0020
    140  CG2      -10.8780  -32.5900  -30.2990 C.3    87  VAL87       0.0020
    141  N        -12.2740  -34.3970  -26.4120 N.am   88  ALA88      -0.1980
    142  CA       -12.9880  -35.1950  -25.3900 C.3    88  ALA88       0.1597
    143  C        -13.6290  -34.3400  -24.2830 C.2    88  ALA88       0.2287
    144  O        -14.7520  -34.6180  -23.8730 O.2    88  ALA88      -0.2864
    145  CB       -12.0420  -36.2200  -24.7630 C.3    88  ALA88       0.0319
    146  N        -16.6450  -32.6070  -25.6340 N.3    91  SER91      -0.1202
    147  CA       -17.6800  -33.6220  -25.7870 C.3    91  SER91       0.2020
    148  C        -18.2530  -34.0260  -24.4360 C.2    91  SER91       0.2618
    149  O        -19.4530  -34.2860  -24.3280 O.2    91  SER91      -0.2717
    150  CB       -17.1210  -34.8400  -26.5160 C.3    91  SER91       0.2103
    151  OG       -16.9420  -34.5530  -27.8850 O.3    91  SER91      -0.2182
    152  N        -17.4030  -34.0600  -23.4180 N.am   92  PHE92      -0.1975
    153  CA       -17.8320  -34.3930  -22.0540 C.3    92  PHE92       0.1639
    154  C        -18.7380  -33.3030  -21.4820 C.2    92  PHE92       0.2290
    155  O        -19.8000  -33.6120  -20.9000 O.2    92  PHE92      -0.2864
    156  CB       -16.6360  -34.6200  -21.1390 C.3    92  PHE92       0.0560
    157  CG       -16.9780  -34.5770  -19.6900 C.ar   92  PHE92      -0.0200
    158  CD1      -17.8390  -35.5290  -19.1490 C.ar   92  PHE92      -0.0042
    159  CD2      -16.4380  -33.6020  -18.8580 C.ar   92  PHE92      -0.0042
    160  CE1      -18.1640  -35.5250  -17.8360 C.ar   92  PHE92      -0.0003
    161  CE2      -16.7790  -33.5720  -17.5150 C.ar   92  PHE92      -0.0003
    162  CZ       -17.6440  -34.5370  -17.0010 C.ar   92  PHE92      -0.0000
    163  N        -22.1560  -33.6800  -23.2610 N.3    95  ALA95      -0.1245
    164  CA       -22.9110  -34.7500  -22.6290 C.3    95  ALA95       0.1562
    165  C        -23.4810  -34.3390  -21.2640 C.2    95  ALA95       0.2260
    166  O        -24.6400  -34.6450  -20.9550 O.2    95  ALA95      -0.2867
    167  CB       -22.0390  -35.9950  -22.4840 C.3    95  ALA95       0.0290
    168  N         -4.4230  -26.9770  -34.6710 N.3   137  PHE137     -0.1241
    169  CA        -5.4890  -27.9700  -34.5810 C.3   137  PHE137      0.1605
    170  C         -6.2640  -28.1090  -35.9070 C.2   137  PHE137      0.2264
    171  O         -6.5040  -29.2180  -36.3630 O.2   137  PHE137     -0.2867
    172  CB        -6.4570  -27.6210  -33.4250 C.3   137  PHE137      0.0534
    173  CG        -7.7240  -28.4230  -33.4300 C.ar  137  PHE137     -0.0203
    174  CD1       -7.7330  -29.7260  -32.9840 C.ar  137  PHE137     -0.0042
    175  CD2       -8.9080  -27.8730  -33.8820 C.ar  137  PHE137     -0.0042
    176  CE1       -8.8950  -30.4750  -33.0000 C.ar  137  PHE137     -0.0003
    177  CE2      -10.0800  -28.6220  -33.8950 C.ar  137  PHE137     -0.0003
    178  CZ       -10.0660  -29.9230  -33.4570 C.ar  137  PHE137     -0.0000
    179  N         -4.1800  -29.7230  -38.5710 N.3   140  LEU140     -0.1231
    180  CA        -4.0150  -31.1430  -38.2930 C.3   140  LEU140      0.1693
    181  C         -5.2920  -31.9480  -38.4620 C.2   140  LEU140      0.2592
    182  O         -5.2320  -33.0840  -38.9030 O.2   140  LEU140     -0.2718
    183  CB        -3.5170  -31.3730  -36.8690 C.3   140  LEU140      0.0284
    184  CG        -2.0360  -31.1980  -36.5390 C.3   140  LEU140      0.0019
    185  CD1       -1.8390  -31.2710  -35.0270 C.3   140  LEU140      0.0001
    186  CD2       -1.1970  -32.2570  -37.2280 C.3   140  LEU140      0.0001
    187  N         -6.4380  -31.3860  -38.0910 N.am  141  TYR141     -0.1962
    188  CA        -7.6710  -32.1690  -37.9800 C.3   141  TYR141      0.1771
    189  C         -8.9450  -31.4920  -38.5020 C.2   141  TYR141      0.2620
    190  O        -10.0160  -31.8150  -38.0150 O.2   141  TYR141     -0.2715
    191  CB        -7.9170  -32.5720  -36.5110 C.3   141  TYR141      0.0574
    192  CG        -6.7360  -33.1930  -35.7860 C.ar  141  TYR141     -0.0198
    193  CD1       -6.0810  -32.5000  -34.7630 C.ar  141  TYR141     -0.0009
    194  CD2       -6.2880  -34.4820  -36.1000 C.ar  141  TYR141     -0.0009
    195  CE1       -5.0080  -33.0590  -34.0880 C.ar  141  TYR141      0.0417
    196  CE2       -5.2180  -35.0540  -35.4200 C.ar  141  TYR141      0.0417
    197  CZ        -4.5820  -34.3290  -34.4240 C.ar  141  TYR141      0.1957
    198  OH        -3.5230  -34.8780  -33.7410 O.3   141  TYR141     -0.2866
    199  N         -8.8460  -30.5750  -39.4640 N.am  142  GLY142     -0.1954
    200  CA       -10.0280  -30.0760  -40.2100 C.3   142  GLY142      0.1869
    201  C         -9.9090  -30.2940  -41.7240 C.2   142  GLY142      0.2309
    202  O        -10.9070  -30.5290  -42.4480 O.2   142  GLY142     -0.2863
@<TRIPOS>BOND
     1   202   201    2
     2   201   200    1
     3   200   199    1
     4   199   189   am
     5   182   181    2
     6   179   180    1
     7   189   190    2
     8   189   188    1
     9   181   180    1
    10   181   187   am
    11   180   183    1
    12    14    12   ar
    13   187   188    1
    14   188   191    1
    15    12    13   ar
    16    12    11    1
    17   186   184    1
    18   183   184    1
    19    11    10    1
    20   184   185    1
    21   191   192    1
    22   171   170    2
    23   194   192   ar
    24   194   196   ar
    25   170   169    1
    26   192   193   ar
    27   196   197   ar
    28    10     7    1
    29     1     2    1
    30    36    34    1
    31   193   195   ar
    32   168   169    1
    33     7     6    1
    34     7     8    1
    35   169   172    1
    36   197   195   ar
    37   197   198    1
    38    35    34    1
    39    34    33    2
    40     2     5    1
    41     2     3    1
    42   177   175   ar
    43   177   178   ar
    44   175   173   ar
    45    33    32    1
    46   178   176   ar
    47   173   172    1
    48   173   174   ar
    49     8     9    2
    50     8    15   am
    51     3     4    2
    52   176   174   ar
    53    32    31    1
    54    15    16    1
    55    30    31    1
    56    30    27    1
    57    26    27    1
    58    27    28    1
    59   113   111   ar
    60   113   114   ar
    61   111   110   ar
    62    16    17    1
    63    16    19    1
    64   114   116   ar
    65   114   112   ar
    66   116   118   ar
    67   110   112   ar
    68   110   109    1
    69    28    29    2
    70    28    37   am
    71    17    18    2
    72   112   115   ar
    73   109   106    1
    74   140   138    1
    75    19    20    1
    76   118   117   ar
    77   139   138    1
    78   115   117   ar
    79    37    38    1
    80    46    44   ar
    81    46    47   ar
    82   138   135    1
    83    48    47    1
    84    44    42   ar
    85   106   107    1
    86   106   105    1
    87   119   107   am
    88   119   120    1
    89    20    22   ar
    90    20    21   ar
    91   107   108    2
    92    47    45   ar
    93   120   121    1
    94    22    24   ar
    95   105    99   am
    96    38    39    1
    97    38    41    1
    98    42    41    1
    99    42    43   ar
   100   135   134    1
   101   135   136    1
   102   151   150    1
   103    21    23   ar
   104    45    43   ar
   105    39    40    2
   106   121   122    2
   107   121   123   am
   108    24    25   ar
   109   136   137    2
   110   136   141   am
   111    99    98    1
   112    99   100    2
   113   101   102    1
   114   101    98    1
   115   103   102    2
   116    23    25   ar
   117   150   147    1
   118   102   104   am
   119   141   142    1
   120    98    97    1
   121   123   124    1
   122   147   146    1
   123   147   148    1
   124    62    60   ar
   125    62    64   ar
   126    60    59   ar
   127   142   145    1
   128   142   143    1
   129    64    63   ar
   130    59    58    1
   131    59    61   ar
   132    58    55    1
   133   124   125    1
   134   124   127    1
   135   125   126    2
   136    63    61   ar
   137   148   149    2
   138   148   152   am
   139   143   144    2
   140    49    50    1
   141   127   128    1
   142    54    55    1
   143    54    51   am
   144    55    56    1
   145   128   129    1
   146    53    50    1
   147   152   153    1
   148   163   164    1
   149    50    51    1
   150   130   129    1
   151   130   131    2
   152   133   131    1
   153   131   132    1
   154    56    57    2
   155    51    52    2
   156   164   167    1
   157   164   165    1
   158   153   154    1
   159   153   156    1
   160    95    94    1
   161   154   155    2
   162   165   166    2
   163    96    94    1
   164   156   157    1
   165    94    93    1
   166    92    91    2
   167   157   158   ar
   168   157   159   ar
   169    72    70    1
   170    65    66    1
   171    93    90    1
   172   158   160   ar
   173    69    70    1
   174    69    66    1
   175    91    90    1
   176   159   161   ar
   177    90    89    1
   178    70    71    1
   179    66    67    1
   180    67    68    2
   181   160   162   ar
   182   161   162   ar
   183    89    82   am
   184    78    77    1
   185    83    82    2
   186    82    81    1
   187    76    75    2
   188    75    74    1
   189    77    79    1
   190    77    74    1
   191    88    86   ar
   192    81    84    1
   193    81    80    1
   194    84    85    1
   195    74    73    1
   196    85    86    1
   197    86    87   ar
