@<TRIPOS>MOLECULE
tmp/2yxlA00.pdb
 196 189 0 0 0
SMALL
GASTEIGER

@<TRIPOS>ATOM
      1  N        -20.3980   77.0600    5.5290 N.3   239  GLN239     -0.1245
      2  CA       -20.1090   76.0430    6.5360 C.3   239  GLN239      0.1566
      3  C        -19.2380   74.9440    5.9400 C.2   239  GLN239      0.2260
      4  O        -19.4670   74.5050    4.8130 O.2   239  GLN239     -0.2867
      5  CB       -21.4050   75.4350    7.1000 C.3   239  GLN239      0.0367
      6  CG       -21.1720   74.4010    8.1980 C.3   239  GLN239      0.0905
      7  CD       -22.4500   73.8540    8.8130 C.2   239  GLN239      0.2608
      8  OE1      -23.2750   73.2370    8.1320 O.2   239  GLN239     -0.2717
      9  NE2      -22.6050   74.0530   10.1200 N.am  239  GLN239     -0.0878
     10  N        -18.3370   70.5250    9.8970 N.3   243  SER243     -0.1217
     11  CA       -19.3110   71.1910   10.7540 C.3   243  SER243      0.1889
     12  C        -20.7480   70.7480   10.4810 C.2   243  SER243      0.2288
     13  O        -21.5580   70.6580   11.4050 O.2   243  SER243     -0.2866
     14  CB       -19.1930   72.7050   10.6130 C.3   243  SER243      0.2089
     15  OG       -17.9450   73.1630   11.1050 O.3   243  SER243     -0.2183
     16  N        -27.8720   74.5290   21.9970 N.3   260  ASP260     -0.1225
     17  CA       -26.5860   74.7980   21.3580 C.3   260  ASP260      0.1805
     18  C        -25.8150   75.7110   22.3030 C.2   260  ASP260      0.2598
     19  O        -26.0650   76.9170   22.3620 O.2   260  ASP260     -0.2718
     20  CB       -26.7840   75.4580   19.9880 C.3   260  ASP260      0.1424
     21  CG       -25.5160   75.4530   19.1320 C.2   260  ASP260      0.3668
     22  OD1      -24.3950   75.5830   19.6760 O.co2 260  ASP260     -0.2456
     23  OD2      -25.6470   75.3300   17.8960 O.co2 260  ASP260     -0.2456
     24  N        -24.8820   75.1220   23.0440 N.am  261  LEU261     -0.1966
     25  CA       -24.2630   75.7850   24.1960 C.3   261  LEU261      0.1728
     26  C        -23.2680   76.8870   23.8180 C.2   261  LEU261      0.2616
     27  O        -23.0700   77.8340   24.5790 O.2   261  LEU261     -0.2715
     28  CB       -23.6190   74.7410   25.1130 C.3   261  LEU261      0.0311
     29  CG       -23.6010   74.9810   26.6240 C.3   261  LEU261      0.0022
     30  CD1      -24.9670   75.4010   27.1790 C.3   261  LEU261      0.0001
     31  CD2      -23.1000   73.7350   27.3310 C.3   261  LEU261      0.0001
     32  N        -22.6500   76.7550   22.6470 N.am  262  ALA262     -0.1963
     33  CA       -21.8370   77.8170   22.0510 C.3   262  ALA262      0.1728
     34  C        -22.2310   77.9100   20.5770 C.2   262  ALA262      0.2616
     35  O        -21.7730   77.1200   19.7480 O.2   262  ALA262     -0.2715
     36  CB       -20.3570   77.5170   22.2110 C.3   262  ALA262      0.0334
     37  N        -23.0840   78.8850   20.2650 N.am  263  ALA263     -0.1963
     38  CA       -23.9010   78.8480   19.0470 C.3   263  ALA263      0.1728
     39  C        -23.5020   79.7840   17.9060 C.2   263  ALA263      0.2616
     40  O        -23.5770   79.3940   16.7420 O.2   263  ALA263     -0.2715
     41  CB       -25.3700   79.0530   19.4030 C.3   263  ALA263      0.0334
     42  N        -23.1040   81.0110   18.2380 N.am  264  ALA264     -0.1964
     43  CA       -22.8230   82.0390   17.2300 C.3   264  ALA264      0.1713
     44  C        -21.5520   81.7440   16.4190 C.2   264  ALA264      0.2458
     45  O        -20.5930   81.1910   16.9610 O.2   264  ALA264     -0.2730
     46  CB       -22.7430   83.4100   17.8850 C.3   264  ALA264      0.0333
     47  N        -21.5270   82.1230   15.1210 N.am  265  PRO265     -0.2716
     48  CA       -22.5210   82.8720   14.3410 C.3   265  PRO265      0.1536
     49  C        -23.7550   82.0670   13.9270 C.2   265  PRO265      0.2599
     50  O        -24.6820   82.6310   13.3480 O.2   265  PRO265     -0.2715
     51  CB       -21.7330   83.2920   13.0980 C.3   265  PRO265      0.0310
     52  CG       -20.7600   82.1890   12.9060 C.3   265  PRO265      0.0237
     53  CD       -20.3500   81.7800   14.2970 C.3   265  PRO265      0.0939
     54  N        -23.7550   80.7630   14.1920 N.am  266  GLY266     -0.1941
     55  CA       -24.9600   79.9580   14.0190 C.3   266  GLY266      0.2014
     56  C        -24.9950   78.9720   12.8690 C.2   266  GLY266      0.2639
     57  O        -26.0750   78.6080   12.4010 O.2   266  GLY266     -0.2714
     58  N        -23.8230   78.5290   12.4200 N.am  267  GLY267     -0.1939
     59  CA       -23.7360   77.5320   11.3560 C.3   267  GLY267      0.2014
     60  C        -24.4210   76.2330   11.7340 C.2   267  GLY267      0.2638
     61  O        -25.1760   75.6640   10.9390 O.2   267  GLY267     -0.2714
     62  N        -24.1700   75.7690   12.9560 N.am  268  LYS268     -0.1977
     63  CA       -24.7150   74.4950   13.4150 C.3   268  LYS268      0.1596
     64  C        -26.1290   74.6020   13.9790 C.2   268  LYS268      0.2287
     65  O        -26.9580   73.7260   13.7300 O.2   268  LYS268     -0.2864
     66  CB       -23.7750   73.8240   14.4130 C.3   268  LYS268      0.0298
     67  CG       -22.4730   73.3690   13.7980 C.3   268  LYS268      0.0038
     68  CD       -21.6360   72.5820   14.7830 C.3   268  LYS268      0.0206
     69  CE       -20.2160   72.3800   14.2670 C.3   268  LYS268      0.1093
     70  NZ       -19.4730   73.6630   14.0970 N.3   268  LYS268     -0.1314
     71  N        -26.8530   79.7800   23.1810 N.3   285  PHE285     -0.1227
     72  CA       -26.0280   80.5810   24.0830 C.3   285  PHE285      0.1736
     73  C        -24.7510   81.0730   23.4130 C.2   285  PHE285      0.2595
     74  O        -24.0920   80.3190   22.6930 O.2   285  PHE285     -0.2718
     75  CB       -25.6560   79.7700   25.3280 C.3   285  PHE285      0.0547
     76  CG       -26.8200   79.4470   26.2210 C.ar  285  PHE285     -0.0202
     77  CD1      -27.5750   78.2940   26.0170 C.ar  285  PHE285     -0.0042
     78  CD2      -27.1550   80.2880   27.2780 C.ar  285  PHE285     -0.0042
     79  CE1      -28.6520   77.9890   26.8450 C.ar  285  PHE285     -0.0003
     80  CE2      -28.2310   79.9910   28.1130 C.ar  285  PHE285     -0.0003
     81  CZ       -28.9800   78.8390   27.8950 C.ar  285  PHE285     -0.0000
     82  N        -24.4100   82.3380   23.6580 N.am  286  ASP286     -0.1960
     83  CA       -23.1210   82.9070   23.2520 C.3   286  ASP286      0.1840
     84  C        -22.8150   84.2040   24.0040 C.2   286  ASP286      0.2622
     85  O        -23.6720   85.0840   24.1120 O.2   286  ASP286     -0.2715
     86  CB       -23.0630   83.1440   21.7400 C.3   286  ASP286      0.1450
     87  CG       -21.6420   83.1560   21.2080 C.2   286  ASP286      0.3671
     88  OD1      -21.2630   82.1810   20.5280 O.co2 286  ASP286     -0.2456
     89  OD2      -20.9030   84.1300   21.4760 O.co2 286  ASP286     -0.2456
     90  N        -21.5880   84.3170   24.5100 N.am  287  VAL287     -0.1963
     91  CA       -21.1630   85.4980   25.2740 C.3   287  VAL287      0.1727
     92  C        -20.9380   86.7310   24.3980 C.2   287  VAL287      0.2616
     93  O        -21.0260   87.8640   24.8780 O.2   287  VAL287     -0.2715
     94  CB       -19.8890   85.2320   26.1280 C.3   287  VAL287      0.0290
     95  CG1      -20.2220   84.3720   27.3360 C.3   287  VAL287      0.0023
     96  CG2      -18.7700   84.6050   25.2920 C.3   287  VAL287      0.0023
     97  N        -20.6510   86.5010   23.1190 N.am  288  ASP288     -0.1971
     98  CA       -20.3550   87.5810   22.1850 C.3   288  ASP288      0.1709
     99  C        -21.6350   88.1370   21.5660 C.2   288  ASP288      0.2293
    100  O        -22.3230   87.4470   20.8100 O.2   288  ASP288     -0.2864
    101  CB       -19.3840   87.0960   21.1030 C.3   288  ASP288      0.1436
    102  CG       -18.6740   88.2380   20.4020 C.2   288  ASP288      0.3671
    103  OD1      -19.3030   88.8990   19.5470 O.co2 288  ASP288     -0.2456
    104  OD2      -17.4810   88.4680   20.6970 O.co2 288  ASP288     -0.2456
    105  N        -21.3560   88.6240   17.6820 N.3   291  ARG291     -0.1245
    106  CA       -21.4620   87.3700   16.9400 C.3   291  ARG291      0.1563
    107  C        -22.9040   86.8690   16.9670 C.2   291  ARG291      0.2260
    108  O        -23.3680   86.2280   16.0200 O.2   291  ARG291     -0.2867
    109  CB       -20.5310   86.3050   17.5290 C.3   291  ARG291      0.0307
    110  CG       -19.0390   86.6080   17.4260 C.3   291  ARG291      0.0489
    111  CD       -18.4040   86.0780   16.1540 C.3   291  ARG291      0.2205
    112  NE       -18.4130   84.6160   16.0900 N.pl3 291  ARG291     -0.0865
    113  CZ       -17.5160   83.8220   16.6710 C.cat 291  ARG291      0.5346
    114  NH1      -16.5200   84.3340   17.3840 N.pl3 291  ARG291      0.1354
    115  NH2      -17.6230   82.5040   16.5420 N.pl3 291  ARG291      0.1354
    116  N        -25.7140   84.9960   27.1600 N.3   312  LYS312     -0.1231
    117  CA       -25.2720   84.7300   28.5270 C.3   312  LYS312      0.1693
    118  C        -24.1200   83.7310   28.5540 C.2   312  LYS312      0.2592
    119  O        -23.8600   83.0410   27.5660 O.2   312  LYS312     -0.2718
    120  CB       -26.4340   84.2090   29.3860 C.3   312  LYS312      0.0285
    121  CG       -27.3060   85.2920   30.0210 C.3   312  LYS312      0.0035
    122  CD       -28.5450   85.6000   29.1830 C.3   312  LYS312      0.0206
    123  CE       -29.2720   86.8430   29.6860 C.3   312  LYS312      0.1093
    124  NZ       -29.9010   86.6480   31.0230 N.3   312  LYS312     -0.1314
    125  N        -23.4320   83.6670   29.6930 N.am  313  ASP313     -0.1960
    126  CA       -22.3950   82.6700   29.9310 C.3   313  ASP313      0.1840
    127  C        -23.0290   81.2820   29.9480 C.2   313  ASP313      0.2622
    128  O        -24.0530   81.0680   30.5990 O.2   313  ASP313     -0.2715
    129  CB       -21.6830   82.9540   31.2580 C.3   313  ASP313      0.1450
    130  CG       -20.3890   82.1710   31.4170 C.2   313  ASP313      0.3671
    131  OD1      -20.3340   80.9920   31.0140 O.co2 313  ASP313     -0.2456
    132  OD2      -19.4200   82.7390   31.9630 O.co2 313  ASP313     -0.2456
    133  N        -22.4180   80.3470   29.2250 N.am  314  ALA314     -0.1963
    134  CA       -22.9730   79.0010   29.0770 C.3   314  ALA314      0.1728
    135  C        -22.6180   78.0660   30.2350 C.2   314  ALA314      0.2616
    136  O        -23.1070   76.9350   30.2920 O.2   314  ALA314     -0.2715
    137  CB       -22.5600   78.3960   27.7450 C.3   314  ALA314      0.0334
    138  N        -21.7680   78.5350   31.1490 N.am  315  ARG315     -0.1977
    139  CA       -21.5360   77.8220   32.4070 C.3   315  ARG315      0.1597
    140  C        -22.7530   77.9690   33.3230 C.2   315  ARG315      0.2287
    141  O        -23.0370   77.0900   34.1390 O.2   315  ARG315     -0.2864
    142  CB       -20.2570   78.2970   33.1010 C.3   315  ARG315      0.0334
    143  CG       -18.9750   77.7560   32.4780 C.3   315  ARG315      0.0492
    144  CD       -18.2160   78.8340   31.7290 C.3   315  ARG315      0.2205
    145  NE       -17.3520   79.5970   32.6260 N.pl3 315  ARG315     -0.0865
    146  CZ       -16.8270   80.7890   32.3510 C.cat 315  ARG315      0.5346
    147  NH1      -17.0760   81.3930   31.1970 N.pl3 315  ARG315      0.1354
    148  NH2      -16.0530   81.3860   33.2430 N.pl3 315  ARG315      0.1354
    149  N        -20.4190   72.7300   20.5450 N.3   332  ASP332     -0.1225
    150  CA       -19.3790   73.0430   19.5830 C.3   332  ASP332      0.1805
    151  C        -18.4710   74.0500   20.2700 C.2   332  ASP332      0.2598
    152  O        -18.6080   75.2640   20.0980 O.2   332  ASP332     -0.2718
    153  CB       -19.9730   73.5930   18.2830 C.3   332  ASP332      0.1424
    154  CG       -18.9180   73.8510   17.2230 C.2   332  ASP332      0.3668
    155  OD1      -17.9860   73.0270   17.0800 O.co2 332  ASP332     -0.2456
    156  OD2      -19.0220   74.8810   16.5230 O.co2 332  ASP332     -0.2456
    157  N        -17.5480   73.5110   21.0610 N.am  333  ALA333     -0.1966
    158  CA       -16.8040   74.2740   22.0580 C.3   333  ALA333      0.1713
    159  C        -15.8660   75.3080   21.4600 C.2   333  ALA333      0.2458
    160  O        -15.2500   75.0570   20.4250 O.2   333  ALA333     -0.2730
    161  CB       -16.0300   73.3250   22.9650 C.3   333  ALA333      0.0333
    162  N        -15.7560   76.4820   22.1120 N.am  334  PRO334     -0.2716
    163  CA       -14.6950   77.4120   21.7490 C.3   334  PRO334      0.1536
    164  C        -13.3630   76.6900   21.8800 C.2   334  PRO334      0.2598
    165  O        -13.1560   75.9490   22.8450 O.2   334  PRO334     -0.2715
    166  CB       -14.8170   78.5230   22.8040 C.3   334  PRO334      0.0310
    167  CG       -15.6490   77.9410   23.8970 C.3   334  PRO334      0.0237
    168  CD       -16.5850   77.0090   23.2100 C.3   334  PRO334      0.0939
    169  N        -12.4820   76.8740   20.9040 N.am  335  CYS335     -0.1968
    170  CA       -11.2400   76.1160   20.8620 C.3   335  CYS335      0.1712
    171  C        -10.1230   76.8920   20.1790 C.2   335  CYS335      0.2296
    172  O        -10.3120   78.0430   19.7830 O.2   335  CYS335     -0.2864
    173  CB       -11.4680   74.7650   20.1740 C.3   335  CYS335      0.0983
    174  SG       -11.8780   74.8800   18.4250 S.3   335  CYS335     -0.0798
    175  N        -11.7670   75.7000   29.8610 N.3   362  LEU362     -0.1245
    176  CA       -13.0690   76.2850   29.5210 C.3   362  LEU362      0.1561
    177  C        -14.0180   75.2470   28.9270 C.2   362  LEU362      0.2260
    178  O        -15.2170   75.2610   29.2120 O.2   362  LEU362     -0.2867
    179  CB       -12.9170   77.4840   28.5730 C.3   362  LEU362      0.0270
    180  CG       -14.1900   78.2070   28.1000 C.3   362  LEU362      0.0019
    181  CD1      -15.0180   78.7660   29.2650 C.3   362  LEU362      0.0001
    182  CD2      -13.8510   79.3110   27.1140 C.3   362  LEU362      0.0001
    183  N        -17.6900   73.9870   30.4800 N.3   366  LEU366     -0.1245
    184  CA       -18.8600   73.9860   29.6010 C.3   366  LEU366      0.1561
    185  C        -19.4140   72.5650   29.4910 C.2   366  LEU366      0.2260
    186  O        -20.6320   72.3620   29.4530 O.2   366  LEU366     -0.2867
    187  CB       -18.5160   74.5460   28.2190 C.3   366  LEU366      0.0270
    188  CG       -18.1570   76.0320   28.1010 C.3   366  LEU366      0.0019
    189  CD1      -17.6290   76.3300   26.7060 C.3   366  LEU366      0.0001
    190  CD2      -19.3370   76.9350   28.4290 C.3   366  LEU366      0.0001
    191  N        -13.0320   72.2820   16.4130 N.3   385  CYS385     -0.1235
    192  CA       -12.2730   72.2830   15.1700 C.3   385  CYS385      0.1677
    193  C        -10.7880   72.4170   15.5010 C.2   385  CYS385      0.2270
    194  O        -10.0650   73.2140   14.9090 O.2   385  CYS385     -0.2867
    195  CB       -12.7600   73.3740   14.2180 C.3   385  CYS385      0.0956
    196  SG       -12.9200   74.9810   14.9830 S.3   385  CYS385     -0.0801
@<TRIPOS>BOND
     1     4     3    2
     2     1     2    1
     3     3     2    1
     4     2     5    1
     5     5     6    1
     6     8     7    2
     7     6     7    1
     8     7     9   am
     9    10    11    1
    10    12    11    1
    11    12    13    2
    12    14    11    1
    13    14    15    1
    14    61    60    2
    15    59    60    1
    16    59    58    1
    17    60    62   am
    18    57    56    2
    19    58    56   am
    20    56    55    1
    21    52    51    1
    22    52    53    1
    23    62    63    1
    24    51    48    1
    25    50    49    2
    26    63    64    1
    27    63    66    1
    28    65    64    2
    29    67    66    1
    30    67    68    1
    31    49    54   am
    32    49    48    1
    33    55    54    1
    34    70    69    1
    35   195   196    1
    36   195   192    1
    37    69    68    1
    38    53    47    1
    39    48    47    1
    40   194   193    2
    41    47    44   am
    42   192   193    1
    43   192   191    1
    44   108   107    2
    45   112   111    1
    46   112   113    2
    47   111   110    1
    48    44    45    2
    49    44    43    1
    50   156   154   ar
    51   115   113    1
    52   113   114    1
    53    40    39    2
    54   106   107    1
    55   106   109    1
    56   106   105    1
    57   155   154   ar
    58   154   153    1
    59    43    46    1
    60    43    42    1
    61   110   109    1
    62    23    21   ar
    63    39    42   am
    64    39    38    1
    65   153   150    1
    66   174   173    1
    67    38    41    1
    68    38    37    1
    69    21    22   ar
    70    21    20    1
    71   103   102   ar
    72   150   151    1
    73   150   149    1
    74    35    34    2
    75   172   171    2
    76    20    17    1
    77   152   151    2
    78   173   170    1
    79   171   170    1
    80    37    34   am
    81   151   157   am
    82   102   104   ar
    83   102   101    1
    84   160   159    2
    85    88    87   ar
    86    34    33    1
    87   100    99    2
    88   170   169    1
    89   169   164   am
    90   157   158    1
    91   101    98    1
    92    87    89   ar
    93    87    86    1
    94    17    16    1
    95    17    18    1
    96   159   158    1
    97   159   162   am
    98    99    98    1
    99    86    83    1
   100   163   164    1
   101   163   162    1
   102   163   166    1
   103   164   165    2
   104    33    36    1
   105    33    32    1
   106   158   161    1
   107   162   168    1
   108    98    97    1
   109    18    19    2
   110    18    24   am
   111    32    26   am
   112    74    73    2
   113   166   167    1
   114    24    25    1
   115    97    92   am
   116    71    72    1
   117   168   167    1
   118    83    82    1
   119    83    84    1
   120    73    82   am
   121    73    72    1
   122    26    25    1
   123    26    27    2
   124    84    85    2
   125    84    90   am
   126    72    75    1
   127    25    28    1
   128    92    93    2
   129    92    91    1
   130    90    91    1
   131    28    29    1
   132    91    94    1
   133    96    94    1
   134    75    76    1
   135    77    76   ar
   136    77    79   ar
   137    94    95    1
   138    76    78   ar
   139    29    30    1
   140    29    31    1
   141   189   188    1
   142    79    81   ar
   143   182   180    1
   144   116   117    1
   145    78    80   ar
   146   119   118    2
   147   137   134    1
   148    81    80   ar
   149   180   179    1
   150   180   181    1
   151   188   187    1
   152   188   190    1
   153   187   184    1
   154   117   118    1
   155   117   120    1
   156   118   125   am
   157   179   176    1
   158   177   178    2
   159   177   176    1
   160   134   133    1
   161   134   135    1
   162   122   123    1
   163   122   121    1
   164   133   127   am
   165   120   121    1
   166   186   185    2
   167   185   184    1
   168   176   175    1
   169   184   183    1
   170   123   124    1
   171   125   126    1
   172   126   127    1
   173   126   129    1
   174   127   128    2
   175   135   136    2
   176   135   138   am
   177   131   130   ar
   178   138   139    1
   179   147   146    1
   180   129   130    1
   181   130   132   ar
   182   144   143    1
   183   144   145    1
   184   146   145    2
   185   146   148    1
   186   139   142    1
   187   139   140    1
   188   143   142    1
   189   140   141    2
