@<TRIPOS>MOLECULE
tmp/2yxnA00.pdb
 169 157 0 0 0
SMALL
GASTEIGER

@<TRIPOS>ATOM
      1  N         15.4410   28.7120   25.1740 N.3    37  VAL37      -0.1245
      2  CA        14.7080   29.6080   24.2850 C.3    37  VAL37       0.1561
      3  C         13.2700   29.1610   24.0540 C.2    37  VAL37       0.2260
      4  O         12.9410   27.9630   24.1530 O.2    37  VAL37      -0.2867
      5  CB        15.4330   29.6940   22.8860 C.3    37  VAL37       0.0252
      6  CG1       15.4790   28.3190   22.2400 C.3    37  VAL37       0.0019
      7  CG2       14.7300   30.6650   21.9520 C.3    37  VAL37       0.0019
      8  N         10.2120   30.4640   21.1730 N.3    39  GLY39      -0.1210
      9  CA        10.0020   31.4150   20.0980 C.3    39  GLY39       0.1956
     10  C          8.5440   31.6600   19.7330 C.2    39  GLY39       0.2612
     11  O          7.6660   30.8040   19.9560 O.2    39  GLY39      -0.2717
     12  N          8.3090   32.8270   19.1360 N.am   40  PHE40      -0.1962
     13  CA         6.9720   33.2460   18.7070 C.3    40  PHE40       0.1771
     14  C          7.0620   33.8850   17.3240 C.2    40  PHE40       0.2619
     15  O          7.9000   34.7560   17.0970 O.2    40  PHE40      -0.2715
     16  CB         6.4190   34.2870   19.6860 C.3    40  PHE40       0.0574
     17  CG         6.4220   33.8250   21.1200 C.ar   40  PHE40      -0.0200
     18  CD1        5.3360   33.1230   21.6400 C.ar   40  PHE40      -0.0042
     19  CD2        7.5400   34.0440   21.9310 C.ar   40  PHE40      -0.0042
     20  CE1        5.3560   32.6350   22.9560 C.ar   40  PHE40      -0.0003
     21  CE2        7.5750   33.5550   23.2510 C.ar   40  PHE40      -0.0003
     22  CZ         6.4690   32.8480   23.7540 C.ar   40  PHE40      -0.0000
     23  N          6.1750   33.5000   16.4110 N.am   41  ASP41      -0.1971
     24  CA         6.1830   34.0950   15.0650 C.3    41  ASP41       0.1709
     25  C          5.2050   35.2700   14.9720 C.2    41  ASP41       0.2293
     26  O          4.1160   35.2400   15.5600 O.2    41  ASP41      -0.2864
     27  CB         5.7800   33.0600   14.0080 C.3    41  ASP41       0.1436
     28  CG         6.9690   32.4080   13.3290 C.2    41  ASP41       0.3671
     29  OD1        6.7270   31.5690   12.4380 O.co2  41  ASP41      -0.2456
     30  OD2        8.1270   32.7360   13.6610 O.co2  41  ASP41      -0.2456
     31  N         -0.7800   31.5970   22.9290 N.3    51  HIS51      -0.1241
     32  CA         0.6710   31.6640   23.1110 C.3    51  HIS51       0.1621
     33  C          1.0840   31.8480   24.5680 C.2    51  HIS51       0.2264
     34  O          2.2660   31.7670   24.8820 O.2    51  HIS51      -0.2867
     35  CB         1.2620   32.8450   22.3110 C.3    51  HIS51       0.0745
     36  CG         0.7810   32.9290   20.8940 C.ar   51  HIS51       0.0817
     37  ND1       -0.0010   33.9690   20.4380 N.ar   51  HIS51      -0.2268
     38  CD2        0.9480   32.0930   19.8400 C.ar   51  HIS51       0.1154
     39  CE1       -0.2980   33.7690   19.1650 C.ar   51  HIS51       0.1986
     40  NE2        0.2650   32.6370   18.7770 N.ar   51  HIS51      -0.2212
     41  N         12.6810   34.5970   21.6100 N.3    71  LEU71      -0.1245
     42  CA        12.8620   34.7330   20.1800 C.3    71  LEU71       0.1561
     43  C         11.5980   35.1310   19.4420 C.2    71  LEU71       0.2260
     44  O         10.5470   34.5060   19.6350 O.2    71  LEU71      -0.2867
     45  CB        13.3580   33.3950   19.6100 C.3    71  LEU71       0.0270
     46  CG        13.4880   33.2330   18.0950 C.3    71  LEU71       0.0019
     47  CD1       14.5420   34.1470   17.5790 C.3    71  LEU71       0.0001
     48  CD2       13.8850   31.7800   17.7720 C.3    71  LEU71       0.0001
     49  N         10.1800   35.5520   15.5530 N.3    73  GLY73      -0.1225
     50  CA        10.5100   35.1030   14.1970 C.3    73  GLY73       0.1811
     51  C         10.4170   36.0810   13.0440 C.2    73  GLY73       0.2280
     52  O          9.5710   35.9300   12.1480 O.2    73  GLY73      -0.2866
     53  N         11.1040   33.6110   10.1380 N.3    76  THR76      -0.1218
     54  CA        10.1640   32.4910   10.0500 C.3    76  THR76       0.1862
     55  C          8.7220   32.9560    9.8430 C.2    76  THR76       0.2287
     56  O          7.9200   32.2380    9.2390 O.2    76  THR76      -0.2866
     57  CB        10.2580   31.5550   11.2850 C.3    76  THR76       0.1770
     58  OG1       10.4340   32.3270   12.4690 O.3    76  THR76      -0.2211
     59  CG2       11.4440   30.5680   11.1370 C.3    76  THR76       0.0375
     60  N          4.7300   28.4890    9.6160 N.3    81  ASP81      -0.1239
     61  CA         4.8880   27.1610   10.1970 C.3    81  ASP81       0.1674
     62  C          3.6580   26.3230    9.8440 C.2    81  ASP81       0.2266
     63  O          2.5530   26.6350   10.2740 O.2    81  ASP81      -0.2867
     64  CB         5.0430   27.2670   11.7240 C.3    81  ASP81       0.1410
     65  CG         5.4420   25.9470   12.3810 C.2    81  ASP81       0.3668
     66  OD1        5.8060   25.9760   13.5820 O.co2  81  ASP81      -0.2456
     67  OD2        5.3880   24.8830   11.7150 O.co2  81  ASP81      -0.2456
     68  N         -0.4530   29.0880    5.4760 N.3    89  ARG89      -0.1245
     69  CA        -0.6020   30.2880    6.2930 C.3    89  ARG89       0.1563
     70  C         -0.5680   31.4840    5.3290 C.2    89  ARG89       0.2260
     71  O          0.0490   31.4190    4.2550 O.2    89  ARG89      -0.2867
     72  CB         0.5660   30.4310    7.2630 C.3    89  ARG89       0.0307
     73  CG         0.8060   29.2530    8.1820 C.3    89  ARG89       0.0489
     74  CD         0.0480   29.4310    9.4700 C.3    89  ARG89       0.2205
     75  NE         0.7860   28.8780   10.5950 N.pl3  89  ARG89      -0.0865
     76  CZ         0.6290   29.2820   11.8440 C.cat  89  ARG89       0.5346
     77  NH1        1.3330   28.7140   12.8070 N.pl3  89  ARG89       0.1354
     78  NH2       -0.2170   30.2670   12.1280 N.pl3  89  ARG89       0.1354
     79  N         15.2840   35.9420   14.5470 N.3   126  ASN126     -0.1240
     80  CA        15.9890   35.1490   13.5370 C.3   126  ASN126      0.1653
     81  C         16.1850   35.8740   12.2010 C.2   126  ASN126      0.2266
     82  O         16.8660   35.3640   11.3120 O.2   126  ASN126     -0.2867
     83  CB        15.3510   33.7520   13.3370 C.3   126  ASN126      0.1155
     84  CG        13.8440   33.7910   13.0270 C.2   126  ASN126      0.2627
     85  OD1       13.2920   34.7980   12.5820 O.2   126  ASN126     -0.2716
     86  ND2       13.1870   32.6660   13.2480 N.am  126  ASN126     -0.0877
     87  N         10.2280   25.4410    6.2670 N.3   175  TYR175     -0.1241
     88  CA        10.1980   26.0540    7.5890 C.3   175  TYR175      0.1605
     89  C         10.9660   25.2810    8.6720 C.2   175  TYR175      0.2264
     90  O         11.6950   25.8660    9.4810 O.2   175  TYR175     -0.2867
     91  CB         8.7360   26.2440    8.0160 C.3   175  TYR175      0.0534
     92  CG         8.5840   27.0650    9.2650 C.ar  175  TYR175     -0.0201
     93  CD1        8.1510   28.3980    9.1890 C.ar  175  TYR175     -0.0009
     94  CD2        8.8280   26.5150   10.5220 C.ar  175  TYR175     -0.0009
     95  CE1        7.9650   29.1610   10.3280 C.ar  175  TYR175      0.0417
     96  CE2        8.6250   27.2740   11.6850 C.ar  175  TYR175      0.0417
     97  CZ         8.1930   28.6020   11.5710 C.ar  175  TYR175      0.1957
     98  OH         7.9680   29.3810   12.6890 O.3   175  TYR175     -0.2866
     99  N         13.7440   26.9130   11.5750 N.3   179  GLN179     -0.1245
    100  CA        13.6570   26.7840   13.0300 C.3   179  GLN179      0.1566
    101  C         14.7540   25.8270   13.5390 C.2   179  GLN179      0.2260
    102  O         15.2650   25.9790   14.6520 O.2   179  GLN179     -0.2867
    103  CB        12.2750   26.2830   13.4590 C.3   179  GLN179      0.0367
    104  CG        12.1330   26.0700   14.9780 C.3   179  GLN179      0.0905
    105  CD        10.6730   25.9900   15.4280 C.2   179  GLN179      0.2608
    106  OE1        9.7700   26.4950   14.7470 O.2   179  GLN179     -0.2717
    107  NE2       10.4430   25.3820   16.5920 N.am  179  GLN179     -0.0878
    108  N         17.8050   27.8250   13.8310 N.3   182  ASP182     -0.1225
    109  CA        17.6720   28.8000   14.9160 C.3   182  ASP182      0.1805
    110  C         18.2620   28.2070   16.1810 C.2   182  ASP182      0.2597
    111  O         18.9840   28.8800   16.9230 O.2   182  ASP182     -0.2718
    112  CB        16.1920   29.1070   15.2030 C.3   182  ASP182      0.1424
    113  CG        15.5830   30.0810   14.2190 C.2   182  ASP182      0.3668
    114  OD1       14.3480   30.2800   14.3170 O.co2 182  ASP182     -0.2456
    115  OD2       16.3090   30.6510   13.3600 O.co2 182  ASP182     -0.2456
    116  N         17.9480   26.9410   16.4370 N.am  183  PHE183     -0.1976
    117  CA        18.4460   26.2870   17.6590 C.3   183  PHE183      0.1639
    118  C         19.9860   26.2420   17.6100 C.2   183  PHE183      0.2290
    119  O         20.6630   26.5950   18.5660 O.2   183  PHE183     -0.2864
    120  CB        17.8960   24.8440   17.7710 C.3   183  PHE183      0.0560
    121  CG        17.8080   24.3080   19.2000 C.ar  183  PHE183     -0.0200
    122  CD1       18.6770   24.7540   20.2010 C.ar  183  PHE183     -0.0042
    123  CD2       16.9040   23.2890   19.5130 C.ar  183  PHE183     -0.0042
    124  CE1       18.6450   24.1870   21.4800 C.ar  183  PHE183     -0.0003
    125  CE2       16.8610   22.7080   20.7840 C.ar  183  PHE183     -0.0003
    126  CZ        17.7320   23.1510   21.7710 C.ar  183  PHE183     -0.0000
    127  N         21.5130   29.7680   18.1550 N.3   186  LEU186     -0.1245
    128  CA        21.4230   30.2390   19.5320 C.3   186  LEU186      0.1561
    129  C         22.3030   29.4130   20.4580 C.2   186  LEU186      0.2260
    130  O         22.7810   29.9130   21.4850 O.2   186  LEU186     -0.2867
    131  CB        19.9660   30.2230   19.9890 C.3   186  LEU186      0.0270
    132  CG        19.1120   31.2570   19.2450 C.3   186  LEU186      0.0019
    133  CD1       17.6310   31.0400   19.5740 C.3   186  LEU186      0.0001
    134  CD2       19.5550   32.6670   19.6180 C.3   186  LEU186      0.0001
    135  N         15.2230   24.0860   24.1600 N.3   195  CYS195     -0.1221
    136  CA        14.2100   24.8530   23.4640 C.3   195  CYS195      0.1808
    137  C         12.8690   24.3310   23.9520 C.2   195  CYS195      0.2601
    138  O         12.6320   23.1180   23.9440 O.2   195  CYS195     -0.2717
    139  CB        14.2500   24.6670   21.9420 C.3   195  CYS195      0.0970
    140  SG        12.9550   25.6640   21.1270 S.3   195  CYS195     -0.0800
    141  N         12.0000   25.2280   24.4000 N.am  196  ILE196     -0.1979
    142  CA        10.6710   24.7920   24.8040 C.3   196  ILE196      0.1595
    143  C          9.7060   25.3860   23.7810 C.2   196  ILE196      0.2287
    144  O          9.9890   26.4440   23.2080 O.2   196  ILE196     -0.2864
    145  CB        10.2980   25.2560   26.2330 C.3   196  ILE196      0.0276
    146  CG1       10.1680   26.7840   26.3050 C.3   196  ILE196      0.0022
    147  CG2       11.3370   24.6920   27.2300 C.3   196  ILE196      0.0022
    148  CD1        9.7660   27.2860   27.6940 C.3   196  ILE196      0.0001
    149  N          5.3610   25.2220   21.7630 N.3   198  GLY198     -0.1225
    150  CA         3.9620   24.8300   21.7420 C.3   198  GLY198      0.1811
    151  C          3.7980   23.3490   21.4680 C.2   198  GLY198      0.2280
    152  O          4.7410   22.6880   21.0500 O.2   198  GLY198     -0.2866
    153  N          2.5060   21.7760   19.0940 N.3   200  ASP200     -0.1225
    154  CA         2.7050   21.3700   17.6980 C.3   200  ASP200      0.1805
    155  C          4.1550   21.5200   17.2330 C.2   200  ASP200      0.2597
    156  O          4.4370   21.4190   16.0500 O.2   200  ASP200     -0.2718
    157  CB         1.8070   22.2140   16.7870 C.3   200  ASP200      0.1424
    158  CG         2.0160   23.7190   16.9750 C.2   200  ASP200      0.3668
    159  OD1        2.9440   24.1200   17.7130 O.co2 200  ASP200     -0.2456
    160  OD2        1.2440   24.5090   16.3830 O.co2 200  ASP200     -0.2456
    161  N          5.0700   21.7390   18.1680 N.am  201  GLN201     -0.1979
    162  CA         6.4630   21.9800   17.8180 C.3   201  GLN201      0.1601
    163  C          7.4850   20.8710   17.9680 C.2   201  GLN201      0.2287
    164  O          8.6590   21.1030   17.6690 O.2   201  GLN201     -0.2864
    165  CB         6.9760   23.1970   18.6060 C.3   201  GLN201      0.0394
    166  CG         6.2590   24.5000   18.2890 C.3   201  GLN201      0.0908
    167  CD         6.4040   24.8630   16.8310 C.2   201  GLN201      0.2608
    168  OE1        7.5190   25.0520   16.3450 O.2   201  GLN201     -0.2717
    169  NE2        5.2830   24.9520   16.1200 N.am  201  GLN201     -0.0878
@<TRIPOS>BOND
     1    71    70    2
     2    70    69    1
     3    68    69    1
     4    87    88    1
     5    69    72    1
     6    72    73    1
     7    88    91    1
     8    88    89    1
     9    91    92    1
    10    73    74    1
    11    89    90    2
    12    93    92   ar
    13    93    95   ar
    14    56    55    2
    15    92    94   ar
    16    74    75    1
    17    60    61    1
    18    55    54    1
    19    62    61    1
    20    62    63    2
    21    54    53    1
    22    54    57    1
    23    61    64    1
    24    95    97   ar
    25    94    96   ar
    26    75    76    2
    27    59    57    1
    28    57    58    1
    29    82    81    2
    30    97    96   ar
    31    97    98    1
    32    99   100    1
    33    67    65   ar
    34    64    65    1
    35    76    78    1
    36    76    77    1
    37    52    51    2
    38    81    80    1
    39    65    66   ar
    40    29    28   ar
    41    85    84    2
    42    84    86   am
    43    84    83    1
    44   100   103    1
    45   100   101    1
    46    51    50    1
    47    28    30   ar
    48    28    27    1
    49    83    80    1
    50   115   113   ar
    51   103   104    1
    52    80    79    1
    53   101   102    2
    54   108   109    1
    55    27    24    1
    56    50    49    1
    57   113   114   ar
    58   113   112    1
    59   106   105    2
    60   109   112    1
    61   109   110    1
    62    25    24    1
    63    25    26    2
    64   104   105    1
    65    24    23    1
    66   105   107   am
    67   156   155    2
    68   169   167   am
    69   110   116   am
    70   110   111    2
    71   168   167    2
    72   160   158   ar
    73    23    14   am
    74   116   117    1
    75   157   158    1
    76   157   154    1
    77   167   166    1
    78   158   159   ar
    79    15    14    2
    80   155   154    1
    81   155   161   am
    82    14    13    1
    83    47    46    1
    84   118   117    1
    85   118   119    2
    86   117   120    1
    87   164   163    2
    88   154   153    1
    89   120   121    1
    90    48    46    1
    91   162   163    1
    92   162   161    1
    93   162   165    1
    94    46    45    1
    95   127   128    1
    96   166   165    1
    97    13    12    1
    98    13    16    1
    99    40    39   ar
   100    40    38   ar
   101    12    10   am
   102    39    37   ar
   103   121   123   ar
   104   121   122   ar
   105   132   133    1
   106   132   134    1
   107   132   131    1
   108    43    44    2
   109    43    42    1
   110   123   125   ar
   111   128   131    1
   112   128   129    1
   113    45    42    1
   114    16    17    1
   115    10    11    2
   116    10     9    1
   117    38    36   ar
   118     9     8    1
   119    42    41    1
   120   122   124   ar
   121    37    36   ar
   122   129   130    2
   123   125   126   ar
   124    36    35    1
   125   152   151    2
   126    17    18   ar
   127    17    19   ar
   128   140   139    1
   129   151   150    1
   130   124   126   ar
   131    18    20   ar
   132   150   149    1
   133    19    21   ar
   134   139   136    1
   135     7     5    1
   136     6     5    1
   137    35    32    1
   138     5     2    1
   139    31    32    1
   140    20    22   ar
   141    32    33    1
   142   144   143    2
   143    21    22   ar
   144   136   137    1
   145   136   135    1
   146   143   142    1
   147   138   137    2
   148   137   141   am
   149     3     4    2
   150     3     2    1
   151     2     1    1
   152   141   142    1
   153    33    34    2
   154   142   145    1
   155   145   146    1
   156   145   147    1
   157   146   148    1
