@<TRIPOS>MOLECULE
tmp/2yxtA01.pdb
 81 73 0 0 0
SMALL
GASTEIGER

@<TRIPOS>ATOM
      1  N         23.2960   -3.5740   51.8730 N.3   182  THR182     -0.1203
      2  CA        22.9660   -3.9300   50.5000 C.3   182  THR182      0.1994
      3  C         23.7490   -5.0470   49.8210 C.2   182  THR182      0.2618
      4  O         23.3280   -5.5970   48.8300 O.2   182  THR182     -0.2717
      5  CB        22.9450   -2.6180   49.6140 C.3   182  THR182      0.1784
      6  OG1       24.2800   -2.0710   49.4750 O.3   182  THR182     -0.2211
      7  CG2       22.0170   -1.6030   50.2560 C.3   182  THR182      0.0376
      8  N         24.9020   -5.3770   50.3500 N.am  183  SER183     -0.1951
      9  CA        25.6550   -6.4800   49.8110 C.3   183  SER183      0.1924
     10  C         26.6960   -6.7590   50.8260 C.2   183  SER183      0.2314
     11  O         27.1590   -5.8440   51.5070 O.2   183  SER183     -0.2863
     12  CB        26.2450   -6.2660   48.3730 C.3   183  SER183      0.2116
     13  OG        27.1540   -5.2120   48.1770 O.3   183  SER183     -0.2180
     14  N         24.3090  -14.0010   47.8850 N.3   195  LEU195     -0.1245
     15  CA        24.8620  -13.1130   48.9120 C.3   195  LEU195      0.1561
     16  C         23.7380  -12.8200   49.8620 C.2   195  LEU195      0.2260
     17  O         22.5630  -13.0020   49.5300 O.2   195  LEU195     -0.2867
     18  CB        25.3640  -11.7810   48.3110 C.3   195  LEU195      0.0270
     19  CG        24.4300  -10.7280   47.6930 C.3   195  LEU195      0.0019
     20  CD1       23.3380  -10.2640   48.6610 C.3   195  LEU195      0.0001
     21  CD2       25.2870   -9.5550   47.3310 C.3   195  LEU195      0.0001
     22  N         21.5730  -10.0360   52.2360 N.3   197  VAL197     -0.1245
     23  CA        21.2110   -8.6320   52.3780 C.3   197  VAL197      0.1561
     24  C         20.5430   -8.6180   53.7250 C.2   197  VAL197      0.2260
     25  O         19.6980   -9.4850   53.9910 O.2   197  VAL197     -0.2867
     26  CB        20.1560   -8.1590   51.3370 C.3   197  VAL197      0.0252
     27  CG1       19.3100   -6.8900   51.8890 C.3   197  VAL197      0.0019
     28  CG2       20.8520   -7.8350   50.0770 C.3   197  VAL197      0.0019
     29  N         20.1630  -13.3370   47.9460 N.3   215  ILE215     -0.1245
     30  CA        19.9630  -12.9830   46.5570 C.3   215  ILE215      0.1561
     31  C         21.1150  -13.3660   45.6170 C.2   215  ILE215      0.2260
     32  O         22.2900  -13.3260   45.9970 O.2   215  ILE215     -0.2867
     33  CB        19.5720  -11.4030   46.4450 C.3   215  ILE215      0.0252
     34  CG1       20.7340  -10.4990   46.8090 C.3   215  ILE215      0.0019
     35  CG2       18.5330  -11.0120   47.4970 C.3   215  ILE215      0.0019
     36  CD1       21.8190  -10.4260   45.7630 C.3   215  ILE215      0.0001
     37  N         23.1810    0.6270   40.1290 N.3   225  THR225     -0.1203
     38  CA        22.2820   -0.2910   40.8510 C.3   225  THR225      0.1994
     39  C         21.9990    0.1350   42.3330 C.2   225  THR225      0.2618
     40  O         20.8690    0.0090   42.8480 O.2   225  THR225     -0.2717
     41  CB        22.8630   -1.7440   40.8240 C.3   225  THR225      0.1784
     42  OG1       24.2530   -1.6970   41.2010 O.3   225  THR225     -0.2211
     43  CG2       22.7460   -2.3440   39.4280 C.3   225  THR225      0.0376
     44  N         23.0360    0.6390   42.9900 N.am  226  GLY226     -0.1956
     45  CA        22.9760    1.1690   44.3390 C.3   226  GLY226      0.1869
     46  C         22.2290    2.5100   44.3140 C.2   226  GLY226      0.2309
     47  O         21.4820    2.8030   45.2440 O.2   226  GLY226     -0.2863
     48  N         18.6820    1.3300   43.9030 N.3   229  PHE229     -0.1241
     49  CA        18.3090    0.6830   45.1490 C.3   229  PHE229      0.1605
     50  C         17.9050    1.6870   46.2110 C.2   229  PHE229      0.2264
     51  O         16.8500    1.5430   46.8430 O.2   229  PHE229     -0.2867
     52  CB        19.4780   -0.1560   45.6840 C.3   229  PHE229      0.0534
     53  CG        19.1100   -0.9750   46.8650 C.ar  229  PHE229     -0.0203
     54  CD1       18.6410   -2.2780   46.6980 C.ar  229  PHE229     -0.0042
     55  CD2       19.1560   -0.4210   48.1440 C.ar  229  PHE229     -0.0042
     56  CE1       18.2220   -3.0170   47.7650 C.ar  229  PHE229     -0.0003
     57  CE2       18.7320   -1.1400   49.2220 C.ar  229  PHE229     -0.0003
     58  CZ        18.2580   -2.4540   49.0390 C.ar  229  PHE229     -0.0000
     59  N         14.2440   -4.9140   46.0350 N.3   252  VAL252     -0.1245
     60  CA        15.0690   -5.9300   45.3890 C.3   252  VAL252      0.1561
     61  C         14.3710   -6.4890   44.1560 C.2   252  VAL252      0.2260
     62  O         15.0130   -6.6770   43.1570 O.2   252  VAL252     -0.2867
     63  CB        15.4010   -7.1090   46.4150 C.3   252  VAL252      0.0252
     64  CG1       16.2930   -8.1740   45.7590 C.3   252  VAL252      0.0019
     65  CG2       16.0720   -6.5140   47.6700 C.3   252  VAL252      0.0019
     66  N         14.8590   -4.2580   41.3420 N.3   255  LEU255     -0.1245
     67  CA        16.2410   -4.3090   40.8140 C.3   255  LEU255      0.1561
     68  C         16.3820   -5.5380   39.9380 C.2   255  LEU255      0.2260
     69  O         17.0340   -5.4930   38.9020 O.2   255  LEU255     -0.2867
     70  CB        17.2700   -4.4270   41.9550 C.3   255  LEU255      0.0270
     71  CG        18.4050   -3.4270   42.2000 C.3   255  LEU255      0.0019
     72  CD1       19.1630   -3.2350   40.9210 C.3   255  LEU255      0.0001
     73  CD2       17.8780   -2.0860   42.7230 C.3   255  LEU255      0.0001
     74  N         17.6910   -5.5650   36.0790 N.3   259  LEU259     -0.1245
     75  CA        18.9660   -6.2000   35.7300 C.3   259  LEU259      0.1561
     76  C         18.7750   -7.3540   34.7580 C.2   259  LEU259      0.2260
     77  O         19.5690   -7.5390   33.8730 O.2   259  LEU259     -0.2867
     78  CB        19.7140   -6.6830   36.9940 C.3   259  LEU259      0.0270
     79  CG        20.3990   -5.5790   37.8200 C.3   259  LEU259      0.0019
     80  CD1       20.9300   -6.1600   39.1360 C.3   259  LEU259      0.0001
     81  CD2       21.5630   -4.9490   37.0570 C.3   259  LEU259      0.0001
@<TRIPOS>BOND
     1    77    76    2
     2    76    75    1
     3    75    74    1
     4    75    78    1
     5    78    79    1
     6    81    79    1
     7    79    80    1
     8    69    68    2
     9    43    41    1
    10    68    67    1
    11    37    38    1
    12    67    66    1
    13    67    70    1
    14    41    38    1
    15    41    42    1
    16    38    39    1
    17    72    71    1
    18    70    71    1
    19    71    73    1
    20    39    40    2
    21    39    44   am
    22    44    45    1
    23    62    61    2
    24    48    49    1
    25    61    60    1
    26    46    45    1
    27    46    47    2
    28    49    52    1
    29    49    50    1
    30    60    59    1
    31    60    63    1
    32    31    32    2
    33    31    30    1
    34    52    53    1
    35    64    63    1
    36    36    34    1
    37    50    51    2
    38    63    65    1
    39    33    30    1
    40    33    34    1
    41    33    35    1
    42    30    29    1
    43    54    53   ar
    44    54    56   ar
    45    53    55   ar
    46    21    19    1
    47    19    18    1
    48    19    20    1
    49    56    58   ar
    50    14    15    1
    51    55    57   ar
    52    13    12    1
    53    18    15    1
    54    12     9    1
    55     4     3    2
    56    15    16    1
    57    58    57   ar
    58     6     5    1
    59    17    16    2
    60     5     7    1
    61     5     2    1
    62     9     8    1
    63     9    10    1
    64     3     8   am
    65     3     2    1
    66    28    26    1
    67     2     1    1
    68    10    11    2
    69    26    27    1
    70    26    23    1
    71    22    23    1
    72    23    24    1
    73    24    25    2
