@<TRIPOS>MOLECULE
tmp/2yxtA02.pdb
 104 100 0 0 0
SMALL
GASTEIGER

@<TRIPOS>ATOM
      1  N         20.1630  -13.3370   47.9460 N.3   215  ILE215     -0.1231
      2  CA        19.9630  -12.9830   46.5570 C.3   215  ILE215      0.1692
      3  C         21.1150  -13.3660   45.6170 C.2   215  ILE215      0.2592
      4  O         22.2900  -13.3260   45.9970 O.2   215  ILE215     -0.2718
      5  CB        19.5720  -11.4030   46.4450 C.3   215  ILE215      0.0266
      6  CG1       20.7340  -10.4990   46.8090 C.3   215  ILE215      0.0019
      7  CG2       18.5330  -11.0120   47.4970 C.3   215  ILE215      0.0020
      8  CD1       21.8190  -10.4260   45.7630 C.3   215  ILE215      0.0001
      9  N         20.7520  -13.7550   44.3970 N.am  216  ARG216     -0.1966
     10  CA        21.6780  -14.1810   43.3500 C.3   216  ARG216      0.1729
     11  C         22.7170  -13.1310   43.0130 C.2   216  ARG216      0.2616
     12  O         22.4000  -11.9690   42.9040 O.2   216  ARG216     -0.2715
     13  CB        20.8980  -14.4590   42.0710 C.3   216  ARG216      0.0348
     14  CG        20.9890  -15.8510   41.4790 C.3   216  ARG216      0.0492
     15  CD        19.5930  -16.4380   41.5720 C.3   216  ARG216      0.2205
     16  NE        19.3140  -17.4320   40.5440 N.pl3 216  ARG216     -0.0865
     17  CZ        19.1520  -17.1570   39.2510 C.cat 216  ARG216      0.5346
     18  NH1       19.2390  -15.8990   38.7930 N.pl3 216  ARG216      0.1354
     19  NH2       18.8930  -18.1550   38.4140 N.pl3 216  ARG216      0.1354
     20  N         23.9630  -13.5230   42.8180 N.am  217  LYS217     -0.1963
     21  CA        24.9530  -12.5290   42.4520 C.3   217  LYS217      0.1728
     22  C         24.9290  -12.2680   40.9480 C.2   217  LYS217      0.2616
     23  O         24.5230  -13.1230   40.1340 O.2   217  LYS217     -0.2715
     24  CB        26.3640  -12.9540   42.8450 C.3   217  LYS217      0.0311
     25  CG        26.5940  -13.1580   44.3080 C.3   217  LYS217      0.0038
     26  CD        28.0560  -13.5840   44.4860 C.3   217  LYS217      0.0206
     27  CE        28.2890  -14.3370   45.7860 C.3   217  LYS217      0.1093
     28  NZ        29.7420  -14.4820   46.0800 N.3   217  LYS217     -0.1314
     29  N         25.4060  -11.0690   40.6250 N.am  218  VAL218     -0.1963
     30  CA        25.5120  -10.5010   39.2840 C.3   218  VAL218      0.1727
     31  C         26.7610  -11.0360   38.5370 C.2   218  VAL218      0.2616
     32  O         27.8800  -10.8240   38.9860 O.2   218  VAL218     -0.2715
     33  CB        25.5810   -8.9140   39.4490 C.3   218  VAL218      0.0290
     34  CG1       24.6270   -8.4630   40.5970 C.3   218  VAL218      0.0023
     35  CG2       27.0010   -8.4410   39.8120 C.3   218  VAL218      0.0023
     36  N         26.5790  -11.7210   37.4110 N.am  219  ASP219     -0.1971
     37  CA        27.7100  -12.2610   36.6430 C.3   219  ASP219      0.1709
     38  C         28.5080  -11.1510   35.9460 C.2   219  ASP219      0.2293
     39  O         29.4050  -11.4160   35.1550 O.2   219  ASP219     -0.2864
     40  CB        27.1910  -13.2430   35.5840 C.3   219  ASP219      0.1436
     41  CG        28.1850  -14.3580   35.2770 C.2   219  ASP219      0.3671
     42  OD1       29.3970  -14.0660   35.1170 O.co2 219  ASP219     -0.2456
     43  OD2       27.7440  -15.5290   35.1890 O.co2 219  ASP219     -0.2456
     44  N         27.4540   -3.7900   36.7550 N.3   222  PHE222     -0.1241
     45  CA        26.4870   -2.7810   36.4370 C.3   222  PHE222      0.1605
     46  C         26.7200   -1.5070   37.2150 C.2   222  PHE222      0.2264
     47  O         27.0980   -1.5280   38.3760 O.2   222  PHE222     -0.2867
     48  CB        25.0940   -3.3060   36.7740 C.3   222  PHE222      0.0534
     49  CG        24.7570   -4.5430   36.0630 C.ar  222  PHE222     -0.0203
     50  CD1       24.4240   -4.5030   34.7050 C.ar  222  PHE222     -0.0042
     51  CD2       24.8150   -5.7710   36.7210 C.ar  222  PHE222     -0.0042
     52  CE1       24.1550   -5.6740   34.0020 C.ar  222  PHE222     -0.0003
     53  CE2       24.5460   -6.9510   36.0320 C.ar  222  PHE222     -0.0003
     54  CZ        24.2160   -6.8980   34.6650 C.ar  222  PHE222     -0.0000
     55  N         14.2440   -4.9140   46.0350 N.3   252  VAL252     -0.1245
     56  CA        15.0690   -5.9300   45.3890 C.3   252  VAL252      0.1561
     57  C         14.3710   -6.4890   44.1560 C.2   252  VAL252      0.2260
     58  O         15.0130   -6.6770   43.1570 O.2   252  VAL252     -0.2867
     59  CB        15.4010   -7.1090   46.4150 C.3   252  VAL252      0.0252
     60  CG1       16.2930   -8.1740   45.7590 C.3   252  VAL252      0.0019
     61  CG2       16.0720   -6.5140   47.6700 C.3   252  VAL252      0.0019
     62  N         14.8590   -4.2580   41.3420 N.3   255  LEU255     -0.1231
     63  CA        16.2410   -4.3090   40.8140 C.3   255  LEU255      0.1693
     64  C         16.3820   -5.5380   39.9380 C.2   255  LEU255      0.2592
     65  O         17.0340   -5.4930   38.9020 O.2   255  LEU255     -0.2718
     66  CB        17.2700   -4.4270   41.9550 C.3   255  LEU255      0.0284
     67  CG        18.4050   -3.4270   42.2000 C.3   255  LEU255      0.0019
     68  CD1       19.1630   -3.2350   40.9210 C.3   255  LEU255      0.0001
     69  CD2       17.8780   -2.0860   42.7230 C.3   255  LEU255      0.0001
     70  N         15.7950   -6.6500   40.3880 N.am  256  HIS256     -0.1976
     71  CA        15.8810   -7.9100   39.6520 C.3   256  HIS256      0.1656
     72  C         15.4110   -7.7890   38.1990 C.2   256  HIS256      0.2291
     73  O         16.1660   -8.1070   37.2630 O.2   256  HIS256     -0.2864
     74  CB        15.1060   -9.0110   40.3910 C.3   256  HIS256      0.0771
     75  CG        15.1070  -10.3250   39.6720 C.ar  256  HIS256      0.0820
     76  ND1       16.2670  -11.0330   39.4260 N.ar  256  HIS256     -0.2267
     77  CD2       14.1100  -10.9980   39.0410 C.ar  256  HIS256      0.1154
     78  CE1       15.9850  -12.0730   38.6670 C.ar  256  HIS256      0.1986
     79  NE2       14.6880  -12.0700   38.4150 N.ar  256  HIS256     -0.2212
     80  N         17.6910   -5.5650   36.0790 N.3   259  LEU259     -0.1231
     81  CA        18.9660   -6.2000   35.7300 C.3   259  LEU259      0.1693
     82  C         18.7750   -7.3540   34.7580 C.2   259  LEU259      0.2591
     83  O         19.5690   -7.5390   33.8730 O.2   259  LEU259     -0.2718
     84  CB        19.7140   -6.6830   36.9940 C.3   259  LEU259      0.0284
     85  CG        20.3990   -5.5790   37.8200 C.3   259  LEU259      0.0019
     86  CD1       20.9300   -6.1600   39.1360 C.3   259  LEU259      0.0001
     87  CD2       21.5630   -4.9490   37.0570 C.3   259  LEU259      0.0001
     88  N         17.6920   -8.1060   34.9320 N.am  260  GLN260     -0.1979
     89  CA        17.3720   -9.2550   34.0810 C.3   260  GLN260      0.1601
     90  C         17.2530   -8.7740   32.6310 C.2   260  GLN260      0.2287
     91  O         17.8530   -9.3300   31.7150 O.2   260  GLN260     -0.2864
     92  CB        16.0550   -9.8910   34.5600 C.3   260  GLN260      0.0394
     93  CG        16.2220  -11.0960   35.4630 C.3   260  GLN260      0.0908
     94  CD        17.1430  -12.1800   34.8730 C.2   260  GLN260      0.2608
     95  OE1       17.1890  -12.3720   33.6480 O.2   260  GLN260     -0.2717
     96  NE2       17.8710  -12.9030   35.7480 N.am  260  GLN260     -0.0878
     97  N         20.5710   -7.5740   31.3550 N.3   263  ILE263     -0.1245
     98  CA        21.3840   -8.7260   30.9870 C.3   263  ILE263      0.1561
     99  C         20.9460   -9.3810   29.7050 C.2   263  ILE263      0.2260
    100  O         21.7910   -9.7220   28.8780 O.2   263  ILE263     -0.2867
    101  CB        21.3820   -9.7780   32.0670 C.3   263  ILE263      0.0252
    102  CG1       22.0670   -9.2260   33.3170 C.3   263  ILE263      0.0019
    103  CG2       22.1790  -10.9570   31.6180 C.3   263  ILE263      0.0019
    104  CD1       21.7470  -10.0080   34.5780 C.3   263  ILE263      0.0001
@<TRIPOS>BOND
     1   100    99    2
     2    99    98    1
     3    98    97    1
     4    98   101    1
     5   103   101    1
     6    91    90    2
     7   101   102    1
     8    90    89    1
     9   102   104    1
    10    95    94    2
    11    83    82    2
    12    52    54   ar
    13    52    50   ar
    14    89    92    1
    15    89    88    1
    16    92    93    1
    17    54    53   ar
    18    50    49   ar
    19    82    88   am
    20    82    81    1
    21    94    93    1
    22    94    96   am
    23    42    41   ar
    24    39    38    2
    25    43    41   ar
    26    41    40    1
    27    40    37    1
    28    81    80    1
    29    81    84    1
    30    38    37    1
    31    53    51   ar
    32    49    51   ar
    33    49    48    1
    34    45    44    1
    35    45    48    1
    36    45    46    1
    37    37    36    1
    38    84    85    1
    39    87    85    1
    40    46    47    2
    41    73    72    2
    42    36    31   am
    43    85    86    1
    44    72    71    1
    45    19    17    1
    46    79    78   ar
    47    79    77   ar
    48    31    32    2
    49    31    30    1
    50    78    76   ar
    51    18    17    1
    52    65    64    2
    53    77    75   ar
    54    17    16    2
    55    30    33    1
    56    30    29    1
    57    76    75   ar
    58    33    35    1
    59    33    34    1
    60    71    70    1
    61    71    74    1
    62    75    74    1
    63    64    70   am
    64    64    63    1
    65    23    22    2
    66    16    15    1
    67    29    22   am
    68    63    62    1
    69    63    66    1
    70    68    67    1
    71    22    21    1
    72    14    15    1
    73    14    13    1
    74    66    67    1
    75    13    10    1
    76    67    69    1
    77    21    20    1
    78    21    24    1
    79    20    11   am
    80    24    25    1
    81    12    11    2
    82    11    10    1
    83    58    57    2
    84    10     9    1
    85    57    56    1
    86    25    26    1
    87     9     3   am
    88    26    27    1
    89    56    55    1
    90    56    59    1
    91     3     4    2
    92     3     2    1
    93    60    59    1
    94     8     6    1
    95    27    28    1
    96    59    61    1
    97     5     2    1
    98     5     6    1
    99     5     7    1
   100     2     1    1
