@<TRIPOS>MOLECULE
tmp/2yxuB07.pdb
 101 98 0 0 0
SMALL
GASTEIGER

@<TRIPOS>ATOM
      1  N         17.7330   23.2530   28.6700 N.3    10  SER10      -0.1217
      2  CA        18.0210   23.6280   30.0490 C.3    10  SER10       0.1889
      3  C         17.4630   22.7370   31.1600 C.2    10  SER10       0.2288
      4  O         16.4940   22.0190   30.9890 O.2    10  SER10      -0.2866
      5  CB        17.6310   25.0910   30.3050 C.3    10  SER10       0.2089
      6  OG        16.4380   25.4780   29.6690 O.3    10  SER10      -0.2183
      7  N         21.9360   24.4600   30.8350 N.3    39  VAL39      -0.1245
      8  CA        22.0070   25.2590   32.0460 C.3    39  VAL39       0.1561
      9  C         21.4200   24.4930   33.2290 C.2    39  VAL39       0.2260
     10  O         20.7000   23.5060   33.0550 O.2    39  VAL39      -0.2867
     11  CB        21.2670   26.6240   31.9200 C.3    39  VAL39       0.0252
     12  CG1       21.3060   27.0850   30.5160 C.3    39  VAL39       0.0019
     13  CG2       19.8450   26.5670   32.4590 C.3    39  VAL39       0.0019
     14  N         19.5260   25.7600   36.6850 N.3    41  PHE41      -0.1241
     15  CA        19.0410   26.8480   37.5030 C.3    41  PHE41       0.1605
     16  C         18.1060   26.2850   38.5620 C.2    41  PHE41       0.2264
     17  O         17.6020   25.1600   38.4460 O.2    41  PHE41      -0.2867
     18  CB        18.2220   27.8550   36.6690 C.3    41  PHE41       0.0534
     19  CG        19.0400   28.7690   35.8080 C.ar   41  PHE41      -0.0203
     20  CD1       20.4140   28.6500   35.7310 C.ar   41  PHE41      -0.0042
     21  CD2       18.4190   29.7430   35.0400 C.ar   41  PHE41      -0.0042
     22  CE1       21.1760   29.4740   34.9070 C.ar   41  PHE41      -0.0003
     23  CE2       19.1730   30.5770   34.2090 C.ar   41  PHE41      -0.0003
     24  CZ        20.5650   30.4290   34.1530 C.ar   41  PHE41      -0.0000
     25  N         13.0400   31.3360   34.9200 N.3    45  THR45      -0.1218
     26  CA        13.1290   32.7760   35.1060 C.3    45  THR45       0.1862
     27  C         11.8410   33.5690   35.1130 C.2    45  THR45       0.2287
     28  O         11.8820   34.7850   35.0090 O.2    45  THR45      -0.2866
     29  CB        14.0370   33.3870   34.0750 C.3    45  THR45       0.1770
     30  OG1       13.4720   33.1730   32.7970 O.3    45  THR45      -0.2211
     31  CG2       15.3820   32.6890   34.0750 C.3    45  THR45       0.0375
     32  N         15.7900   33.4890   40.7760 N.3    50  TRP50      -0.1241
     33  CA        16.3990   32.3310   40.1570 C.3    50  TRP50       0.1605
     34  C         17.9230   32.5140   40.1680 C.2    50  TRP50       0.2264
     35  O         18.3940   33.6100   39.9390 O.2    50  TRP50      -0.2867
     36  CB        15.8740   32.1310   38.7230 C.3    50  TRP50       0.0550
     37  CG        15.8880   33.3700   37.9020 C.ar   50  TRP50       0.0003
     38  CD1       14.8760   34.3190   37.7840 C.ar   50  TRP50       0.0946
     39  CD2       16.9900   33.8600   37.1250 C.ar   50  TRP50       0.0152
     40  NE1       15.3030   35.3620   36.9830 N.ar   50  TRP50      -0.2442
     41  CE2       16.5910   35.1040   36.5670 C.ar   50  TRP50       0.0810
     42  CE3       18.2800   33.3720   36.8490 C.ar   50  TRP50       0.0012
     43  CZ2       17.4480   35.8620   35.7490 C.ar   50  TRP50       0.0191
     44  CZ3       19.1340   34.1350   36.0310 C.ar   50  TRP50       0.0001
     45  CH2       18.7120   35.3550   35.5000 C.ar   50  TRP50       0.0015
     46  N         25.5350   28.2380   33.7720 N.3    54  VAL54      -0.1245
     47  CA        25.2610   27.8660   32.4080 C.3    54  VAL54       0.1561
     48  C         26.4330   27.0550   31.8280 C.2    54  VAL54       0.2260
     49  O         27.5710   27.1140   32.2990 O.2    54  VAL54      -0.2867
     50  CB        24.9750   29.1080   31.5090 C.3    54  VAL54       0.0252
     51  CG1       23.8750   29.9560   32.0940 C.3    54  VAL54       0.0019
     52  CG2       26.2220   29.8980   31.3180 C.3    54  VAL54       0.0019
     53  N         15.2140   26.3550   23.7340 N.3    82  TYR82      -0.1241
     54  CA        15.8250   27.5860   24.1730 C.3    82  TYR82       0.1605
     55  C         17.3260   27.4530   24.3200 C.2    82  TYR82       0.2264
     56  O         17.8330   26.6320   25.0900 O.2    82  TYR82      -0.2867
     57  CB        15.2110   28.0600   25.4810 C.3    82  TYR82       0.0534
     58  CG        15.9620   29.2150   26.0980 C.ar   82  TYR82      -0.0201
     59  CD1       15.6960   30.5270   25.7240 C.ar   82  TYR82      -0.0009
     60  CD2       16.9920   28.9840   27.0180 C.ar   82  TYR82      -0.0009
     61  CE1       16.4290   31.5760   26.2450 C.ar   82  TYR82       0.0417
     62  CE2       17.7430   30.0210   27.5450 C.ar   82  TYR82       0.0417
     63  CZ        17.4600   31.3170   27.1620 C.ar   82  TYR82       0.1957
     64  OH        18.1890   32.3560   27.7110 O.3    82  TYR82      -0.2866
     65  N         20.5750   30.1670   24.6890 N.3    84  ARG84      -0.1245
     66  CA        20.8200   31.5490   25.0540 C.3    84  ARG84       0.1563
     67  C         21.9610   32.2810   24.4000 C.2    84  ARG84       0.2260
     68  O         21.9770   33.4970   24.4150 O.2    84  ARG84      -0.2867
     69  CB        21.0000   31.6130   26.5640 C.3    84  ARG84       0.0307
     70  CG        21.9710   30.5680   27.0670 C.3    84  ARG84       0.0489
     71  CD        22.4000   30.9020   28.4750 C.3    84  ARG84       0.2205
     72  NE        23.1930   32.1330   28.5380 N.pl3  84  ARG84      -0.0865
     73  CZ        24.5100   32.1760   28.3510 C.cat  84  ARG84       0.5346
     74  NH1       25.1440   33.3420   28.4300 N.pl3  84  ARG84       0.1354
     75  NH2       25.1900   31.0510   28.0930 N.pl3  84  ARG84       0.1354
     76  N         13.4140   37.1920   23.4010 N.3   125  TYR125     -0.1227
     77  CA        14.0030   36.9280   24.6900 C.3   125  TYR125      0.1736
     78  C         15.2760   36.1160   24.6450 C.2   125  TYR125      0.2595
     79  O         15.6220   35.3970   25.5890 O.2   125  TYR125     -0.2718
     80  CB        13.0180   36.3720   25.7150 C.3   125  TYR125      0.0548
     81  CG        12.0010   35.3870   25.2660 C.ar  125  TYR125     -0.0200
     82  CD1       12.3800   34.1290   24.8130 C.ar  125  TYR125     -0.0009
     83  CD2       10.6370   35.6520   25.4530 C.ar  125  TYR125     -0.0009
     84  CE1       11.4190   33.1350   24.5680 C.ar  125  TYR125      0.0417
     85  CE2        9.6780   34.6800   25.2210 C.ar  125  TYR125      0.0417
     86  CZ        10.0730   33.4080   24.7760 C.ar  125  TYR125      0.1957
     87  OH         9.1310   32.4060   24.5470 O.3   125  TYR125     -0.2866
     88  N         15.9680   36.2550   23.5250 N.am  126  VAL126     -0.1966
     89  CA        17.2830   35.6580   23.3310 C.3   126  VAL126      0.1712
     90  C         18.0200   36.7530   22.5490 C.2   126  VAL126      0.2458
     91  O         17.4020   37.6750   22.0120 O.2   126  VAL126     -0.2730
     92  CB        17.2620   34.3230   22.5250 C.3   126  VAL126      0.0289
     93  CG1       16.2310   33.3870   23.1270 C.3   126  VAL126      0.0023
     94  CG2       16.9860   34.5820   21.0540 C.3   126  VAL126      0.0023
     95  N         19.3370   36.6810   22.5020 N.am  127  PRO127     -0.2727
     96  CA        20.1370   37.6790   21.7820 C.3   127  PRO127      0.1402
     97  C         19.7280   37.8020   20.3350 C.2   127  PRO127      0.2269
     98  O         19.5530   36.7950   19.6740 O.2   127  PRO127     -0.2865
     99  CB        21.5540   37.1420   21.9340 C.3   127  PRO127      0.0296
    100  CG        21.5120   36.5170   23.3300 C.3   127  PRO127      0.0237
    101  CD        20.1790   35.7930   23.3240 C.3   127  PRO127      0.0939
@<TRIPOS>BOND
     1    98    97    2
     2    97    96    1
     3    94    92    1
     4    96    99    1
     5    96    95    1
     6    99   100    1
     7    91    90    2
     8    95    90   am
     9    95   101    1
    10    92    93    1
    11    92    89    1
    12    90    89    1
    13   101   100    1
    14    89    88    1
    15    76    77    1
    16    88    78   am
    17    53    54    1
    18    54    55    1
    19    54    57    1
    20    55    56    2
    21    67    68    2
    22    67    66    1
    23    87    86    1
    24    84    86   ar
    25    84    82   ar
    26    78    77    1
    27    78    79    2
    28    65    66    1
    29    77    80    1
    30    86    85   ar
    31    82    81   ar
    32    66    69    1
    33    85    83   ar
    34    81    83   ar
    35    81    80    1
    36    57    58    1
    37    59    58   ar
    38    59    61   ar
    39    58    60   ar
    40    61    63   ar
    41    69    70    1
    42    60    62   ar
    43    70    71    1
    44    63    62   ar
    45    63    64    1
    46    75    73    1
    47    73    74    1
    48    73    72    2
    49    71    72    1
    50     1     2    1
    51     6     5    1
    52     2     5    1
    53     2     3    1
    54    12    11    1
    55     7     8    1
    56     4     3    2
    57    52    50    1
    58    50    51    1
    59    50    47    1
    60    48    49    2
    61    48    47    1
    62    11     8    1
    63    11    13    1
    64     8     9    1
    65    47    46    1
    66    30    29    1
    67    10     9    2
    68    31    29    1
    69    29    26    1
    70    24    23   ar
    71    24    22   ar
    72    23    21   ar
    73    22    20   ar
    74    25    26    1
    75    28    27    2
    76    21    19   ar
    77    26    27    1
    78    45    43   ar
    79    45    44   ar
    80    20    19   ar
    81    43    41   ar
    82    19    18    1
    83    44    42   ar
    84    41    40   ar
    85    41    39   ar
    86    18    15    1
    87    14    15    1
    88    42    39   ar
    89    40    38   ar
    90    39    37   ar
    91    15    16    1
    92    38    37   ar
    93    37    36    1
    94    17    16    2
    95    36    33    1
    96    35    34    2
    97    33    34    1
    98    33    32    1
