@<TRIPOS>MOLECULE
tmp/2yxxA00.pdb
 152 147 0 0 0
SMALL
GASTEIGER

@<TRIPOS>ATOM
      1  N         40.6040   29.3590   36.8730 N.3    43  ALA43      -0.1245
      2  CA        41.6860   30.3860   36.6800 C.3    43  ALA43       0.1562
      3  C         41.3500   31.6020   37.5540 C.2    43  ALA43       0.2260
      4  O         40.5320   32.4910   37.2000 O.2    43  ALA43      -0.2867
      5  CB        41.6830   30.8020   35.1830 C.3    43  ALA43       0.0290
      6  N         42.9100   34.2490   37.8810 N.3    45  LYS45      -0.1245
      7  CA        43.0590   35.5840   37.2900 C.3    45  LYS45       0.1561
      8  C         41.7320   36.1980   36.8590 C.2    45  LYS45       0.2260
      9  O         41.5970   37.4250   36.8570 O.2    45  LYS45      -0.2867
     10  CB        44.0340   35.4880   36.1000 C.3    45  LYS45       0.0271
     11  CG        44.3070   36.6620   35.3250 C.3    45  LYS45       0.0035
     12  CD        45.0720   36.1900   34.0440 C.3    45  LYS45       0.0206
     13  CE        44.2420   35.4810   33.0650 C.3    45  LYS45       0.1093
     14  NZ        44.6530   34.1240   33.3660 N.3    45  LYS45      -0.1314
     15  N         44.0050   27.4000   39.4340 N.3    63  ASP63      -0.1239
     16  CA        45.1360   27.7470   38.6060 C.3    63  ASP63       0.1674
     17  C         45.5340   29.1240   39.0540 C.2    63  ASP63       0.2266
     18  O         44.7480   30.0960   38.9450 O.2    63  ASP63      -0.2867
     19  CB        44.6580   27.6960   37.1280 C.3    63  ASP63       0.1410
     20  CG        45.3700   28.7300   36.2130 C.2    63  ASP63       0.3668
     21  OD1       46.5320   28.9980   36.5130 O.co2  63  ASP63      -0.2456
     22  OD2       44.7100   29.3030   35.2510 O.co2  63  ASP63      -0.2456
     23  N         50.9650   28.3220   37.4130 N.3    86  ASN86      -0.1240
     24  CA        51.3990   28.8410   36.0810 C.3    86  ASN86       0.1653
     25  C         52.2530   30.0860   36.2910 C.2    86  ASN86       0.2266
     26  O         52.1410   30.8320   37.2920 O.2    86  ASN86      -0.2867
     27  CB        50.1820   29.2290   35.2790 C.3    86  ASN86       0.1155
     28  CG        49.5850   28.0330   34.5780 C.2    86  ASN86       0.2627
     29  OD1       50.2520   27.4530   33.7240 O.2    86  ASN86      -0.2716
     30  ND2       48.3510   27.6230   34.9400 N.am   86  ASN86      -0.0877
     31  N         54.7800   23.6620   29.4790 N.3   128  ARG128     -0.1245
     32  CA        53.9040   24.4180   28.5970 C.3   128  ARG128      0.1563
     33  C         54.4570   24.4900   27.1410 C.2   128  ARG128      0.2260
     34  O         55.5770   24.9710   26.9690 O.2   128  ARG128     -0.2867
     35  CB        53.7320   25.8170   29.1980 C.3   128  ARG128      0.0307
     36  CG        52.6730   26.6080   28.3380 C.3   128  ARG128      0.0489
     37  CD        52.2810   27.9420   29.0270 C.3   128  ARG128      0.2205
     38  NE        51.2590   28.5840   28.1340 N.pl3 128  ARG128     -0.0865
     39  CZ        50.5850   29.6450   28.5430 C.cat 128  ARG128      0.5346
     40  NH1       50.8540   30.1720   29.7530 N.pl3 128  ARG128      0.1354
     41  NH2       49.6330   30.1230   27.7330 N.pl3 128  ARG128      0.1354
     42  N         54.7690   33.2090   26.3810 N.3   150  PHE150     -0.1241
     43  CA        54.6240   31.9560   27.1280 C.3   150  PHE150      0.1605
     44  C         55.0110   30.6730   26.4100 C.2   150  PHE150      0.2264
     45  O         54.9120   30.5930   25.2110 O.2   150  PHE150     -0.2867
     46  CB        53.1450   31.7760   27.4680 C.3   150  PHE150      0.0534
     47  CG        52.5500   32.9540   28.1060 C.ar  150  PHE150     -0.0203
     48  CD1       52.8340   33.2670   29.4260 C.ar  150  PHE150     -0.0042
     49  CD2       51.6800   33.7120   27.3730 C.ar  150  PHE150     -0.0042
     50  CE1       52.1980   34.3960   30.0400 C.ar  150  PHE150     -0.0003
     51  CE2       51.0250   34.8550   27.9770 C.ar  150  PHE150     -0.0003
     52  CZ        51.3060   35.1610   29.2960 C.ar  150  PHE150     -0.0000
     53  N         51.3550   20.9520   28.9850 N.3   171  HIS171     -0.1241
     54  CA        50.2720   21.9480   29.3050 C.3   171  HIS171      0.1621
     55  C         50.1190   22.7550   28.0510 C.2   171  HIS171      0.2264
     56  O         51.1120   23.1300   27.4010 O.2   171  HIS171     -0.2867
     57  CB        50.8370   22.8970   30.4200 C.3   171  HIS171      0.0745
     58  CG        50.0440   24.1630   30.6150 C.ar  171  HIS171      0.0817
     59  ND1       48.6720   24.2330   30.7200 N.ar  171  HIS171     -0.2268
     60  CD2       50.5150   25.4340   30.6890 C.ar  171  HIS171      0.1154
     61  CE1       48.3020   25.5200   30.8900 C.ar  171  HIS171      0.1986
     62  NE2       49.4180   26.2650   30.8800 N.ar  171  HIS171     -0.2212
     63  N         47.7030   26.0340   26.5390 N.3   173  HIS173     -0.1241
     64  CA        46.5690   26.9490   26.7360 C.3   173  HIS173      0.1621
     65  C         46.6890   27.8670   25.5070 C.2   173  HIS173      0.2264
     66  O         47.6060   28.7270   25.4280 O.2   173  HIS173     -0.2867
     67  CB        46.8000   27.7390   28.0550 C.3   173  HIS173      0.0745
     68  CG        45.8050   28.8400   28.2070 C.ar  173  HIS173      0.0817
     69  ND1       44.4590   28.5950   28.3900 N.ar  173  HIS173     -0.2268
     70  CD2       45.9370   30.1700   28.0430 C.ar  173  HIS173      0.1154
     71  CE1       43.7950   29.7470   28.3500 C.ar  173  HIS173      0.1986
     72  NE2       44.6810   30.7260   28.1450 N.ar  173  HIS173     -0.2212
     73  N         42.0630   32.9510   24.5840 N.3   176  SER176     -0.1217
     74  CA        40.8920   33.2250   25.3980 C.3   176  SER176      0.1889
     75  C         39.7430   33.7170   24.4900 C.2   176  SER176      0.2288
     76  O         39.9770   34.1910   23.3440 O.2   176  SER176     -0.2866
     77  CB        41.2460   34.3130   26.4480 C.3   176  SER176      0.2089
     78  OG        40.2660   34.3850   27.5110 O.3   176  SER176     -0.2183
     79  N         40.0960   28.8970   28.1580 N.3   208  GLY208     -0.1210
     80  CA        39.8490   29.6810   27.0080 C.3   208  GLY208      0.1956
     81  C         38.5200   29.5690   26.3600 C.2   208  GLY208      0.2611
     82  O         38.2920   30.2090   25.3360 O.2   208  GLY208     -0.2717
     83  N         37.6200   28.8030   26.9650 N.am  209  TRP209     -0.1976
     84  CA        36.2940   28.6850   26.3610 C.3   209  TRP209      0.1640
     85  C         35.6000   30.0570   26.3430 C.2   209  TRP209      0.2290
     86  O         35.5630   30.7570   27.3710 O.2   209  TRP209     -0.2864
     87  CB        35.4020   27.8040   27.1860 C.3   209  TRP209      0.0576
     88  CG        35.7630   26.3550   27.1510 C.ar  209  TRP209      0.0006
     89  CD1       36.9060   25.7730   26.6710 C.ar  209  TRP209      0.0946
     90  CD2       34.9620   25.3090   27.6870 C.ar  209  TRP209      0.0152
     91  NE1       36.8580   24.3800   26.8620 N.ar  209  TRP209     -0.2442
     92  CE2       35.6850   24.0730   27.5100 C.ar  209  TRP209      0.0810
     93  CE3       33.6960   25.2800   28.3010 C.ar  209  TRP209      0.0012
     94  CZ2       35.1710   22.8310   27.9390 C.ar  209  TRP209      0.0191
     95  CZ3       33.1940   24.0650   28.7310 C.ar  209  TRP209      0.0001
     96  CH2       33.9300   22.8470   28.5570 C.ar  209  TRP209      0.0015
     97  N         41.7060   24.4460   32.9750 N.3   240  GLU240     -0.1231
     98  CA        41.8900   25.7010   33.6940 C.3   240  GLU240      0.1699
     99  C         40.8950   26.6670   33.1380 C.2   240  GLU240      0.2592
    100  O         41.1900   27.4640   32.2660 O.2   240  GLU240     -0.2718
    101  CB        43.3640   26.2320   33.3750 C.3   240  GLU240      0.0402
    102  CG        44.4850   25.2280   33.8190 C.3   240  GLU240      0.1161
    103  CD        45.8500   25.7520   33.4450 C.2   240  GLU240      0.3649
    104  OE1       45.9240   26.4490   32.3980 O.co2 240  GLU240     -0.2457
    105  OE2       46.8090   25.4480   34.1390 O.co2 240  GLU240     -0.2457
    106  N         39.6750   26.6580   33.6780 N.am  241  ILE241     -0.1966
    107  CA        38.6150   27.5270   33.1130 C.3   241  ILE241      0.1727
    108  C         38.3490   28.7460   33.9780 C.2   241  ILE241      0.2617
    109  O         38.2630   28.6280   35.1800 O.2   241  ILE241     -0.2715
    110  CB        37.3170   26.6950   33.0080 C.3   241  ILE241      0.0290
    111  CG1       37.5450   25.5230   31.9980 C.3   241  ILE241      0.0022
    112  CG2       36.1150   27.6550   32.4840 C.3   241  ILE241      0.0023
    113  CD1       37.7400   26.0220   30.6060 C.3   241  ILE241      0.0001
    114  N         38.3270   29.9320   33.3760 N.am  242  GLY242     -0.1940
    115  CA        38.0360   31.1480   34.1510 C.3   242  GLY242      0.2014
    116  C         36.7500   31.7830   33.6290 C.2   242  GLY242      0.2639
    117  O         35.6850   31.5930   34.1580 O.2   242  GLY242     -0.2714
    118  N         36.8680   32.5110   32.5350 N.am  243  ARG243     -0.1963
    119  CA        35.7470   33.3070   31.9930 C.3   243  ARG243      0.1729
    120  C         34.4310   32.5200   31.8470 C.2   243  ARG243      0.2616
    121  O         33.3910   33.0120   32.2190 O.2   243  ARG243     -0.2715
    122  CB        36.1180   33.7970   30.5690 C.3   243  ARG243      0.0348
    123  CG        35.1560   34.8840   30.0190 C.3   243  ARG243      0.0492
    124  CD        35.4060   35.0910   28.4350 C.3   243  ARG243      0.2205
    125  NE        36.8290   35.3550   28.1960 N.pl3 243  ARG243     -0.0865
    126  CZ        37.4260   36.5460   28.3080 C.cat 243  ARG243      0.5346
    127  NH1       36.7540   37.6360   28.6490 N.pl3 243  ARG243      0.1354
    128  NH2       38.7630   36.6360   28.0690 N.pl3 243  ARG243      0.1354
    129  N         34.5060   31.2890   31.3120 N.am  244  TYR244     -0.1974
    130  CA        33.2680   30.6130   30.9820 C.3   244  TYR244      0.1639
    131  C         32.3910   30.3720   32.2400 C.2   244  TYR244      0.2290
    132  O         31.1450   30.4030   32.1340 O.2   244  TYR244     -0.2864
    133  CB        33.6210   29.2880   30.2860 C.3   244  TYR244      0.0560
    134  CG        32.4110   28.5730   29.6260 C.ar  244  TYR244     -0.0198
    135  CD1       32.0560   28.8780   28.3030 C.ar  244  TYR244     -0.0009
    136  CD2       31.7050   27.6810   30.3710 C.ar  244  TYR244     -0.0009
    137  CE1       30.9530   28.2710   27.7350 C.ar  244  TYR244      0.0417
    138  CE2       30.5580   27.0140   29.7810 C.ar  244  TYR244      0.0417
    139  CZ        30.2550   27.3690   28.4830 C.ar  244  TYR244      0.1957
    140  OH        29.1300   26.8180   27.8830 O.3   244  TYR244     -0.2866
    141  N         37.3680   39.0970   34.7280 N.3   335  TYR335     -0.1241
    142  CA        38.2630   40.2440   34.2800 C.3   335  TYR335      0.1605
    143  C         37.5380   41.5890   34.4430 C.2   335  TYR335      0.2264
    144  O         37.5880   42.5010   33.5690 O.2   335  TYR335     -0.2867
    145  CB        38.6300   39.9720   32.8040 C.3   335  TYR335      0.0534
    146  CG        39.2220   38.6120   32.6010 C.ar  335  TYR335     -0.0201
    147  CD1       40.4560   38.2870   33.1470 C.ar  335  TYR335     -0.0009
    148  CD2       38.5180   37.6060   31.9410 C.ar  335  TYR335     -0.0009
    149  CE1       40.9860   37.0040   33.0490 C.ar  335  TYR335      0.0417
    150  CE2       39.0830   36.2620   31.8140 C.ar  335  TYR335      0.0417
    151  CZ        40.2840   35.9870   32.3730 C.ar  335  TYR335      0.1957
    152  OH        40.8600   34.7490   32.3610 O.3   335  TYR335     -0.2866
@<TRIPOS>BOND
     1    76    75    2
     2    75    74    1
     3    73    74    1
     4    45    44    2
     5    82    81    2
     6    74    77    1
     7    66    65    2
     8    65    64    1
     9    85    84    1
    10    85    86    2
    11    81    83   am
    12    81    80    1
    13    84    83    1
    14    84    87    1
    15    42    43    1
    16    44    43    1
    17    77    78    1
    18    63    64    1
    19    89    91   ar
    20    89    88   ar
    21    64    67    1
    22    91    92   ar
    23    34    33    2
    24    80    79    1
    25    43    46    1
    26    33    32    1
    27    88    87    1
    28    88    90   ar
    29    49    51   ar
    30    49    47   ar
    31    56    55    2
    32    46    47    1
    33    92    90   ar
    34    92    94   ar
    35    90    93   ar
    36    41    39    1
    37   137   135   ar
    38   137   139   ar
    39   140   139    1
    40    94    96   ar
    41    51    52   ar
    42    70    72   ar
    43    70    68   ar
    44    55    54    1
    45    67    68    1
    46   128   126    1
    47    47    48   ar
    48    38    39    2
    49    38    37    1
    50    72    71   ar
    51   125   126    2
    52   125   124    1
    53    68    69   ar
    54    93    95   ar
    55   135   134   ar
    56   126   127    1
    57    36    37    1
    58    36    35    1
    59    71    69   ar
    60   124   123    1
    61   139   138   ar
    62    39    40    1
    63    96    95   ar
    64    32    35    1
    65    32    31    1
    66    53    54    1
    67    52    50   ar
    68    54    57    1
    69    48    50   ar
    70   134   133    1
    71   134   136   ar
    72   138   136   ar
    73   123   122    1
    74   133   130    1
    75    57    58    1
    76   122   119    1
    77   113   111    1
    78    58    60   ar
    79    58    59   ar
    80    60    62   ar
    81    59    61   ar
    82    62    61   ar
    83   130   129    1
    84   130   131    1
    85   129   120   am
    86   150   148   ar
    87   150   151   ar
    88   120   119    1
    89   120   121    2
    90   148   146   ar
    91   119   118    1
    92   111   110    1
    93   132   131    2
    94   100    99    2
    95   152   151    1
    96   151   149   ar
    97   104   103   ar
    98   112   110    1
    99   118   116   am
   100   146   145    1
   101   146   147   ar
   102   145   142    1
   103    97    98    1
   104   110   107    1
   105   149   147   ar
   106    13    14    1
   107    13    12    1
   108   107   106    1
   109   107   108    1
   110    99   106   am
   111    99    98    1
   112   101    98    1
   113   101   102    1
   114   114   108   am
   115   114   115    1
   116   103   102    1
   117   103   105   ar
   118   144   143    2
   119   116   115    1
   120   116   117    2
   121    29    28    2
   122   108   109    2
   123    12    11    1
   124   142   143    1
   125   142   141    1
   126    28    30   am
   127    28    27    1
   128     5     2    1
   129    22    20   ar
   130    27    24    1
   131    11    10    1
   132    24    25    1
   133    24    23    1
   134    10     7    1
   135    20    21   ar
   136    20    19    1
   137    25    26    2
   138     2     1    1
   139     2     3    1
   140     9     8    2
   141     8     7    1
   142    19    16    1
   143     4     3    2
   144     7     6    1
   145    16    17    1
   146    16    15    1
   147    18    17    2
