@<TRIPOS>MOLECULE
tmp/2yy7A01.pdb
 111 109 0 0 0
SMALL
GASTEIGER

@<TRIPOS>ATOM
      1  N         28.6050   10.7920   42.4230 N.3    57  PHE57      -0.1241
      2  CA        27.4330   11.2130   43.1870 C.3    57  PHE57       0.1605
      3  C         27.0820   10.2760   44.3480 C.2    57  PHE57       0.2264
      4  O         26.7590   10.7420   45.4440 O.2    57  PHE57      -0.2867
      5  CB        26.2240   11.3570   42.2550 C.3    57  PHE57       0.0534
      6  CG        24.9440   11.7130   42.9650 C.ar   57  PHE57      -0.0203
      7  CD1       24.1700   10.7290   43.5740 C.ar   57  PHE57      -0.0042
      8  CD2       24.5180   13.0360   43.0310 C.ar   57  PHE57      -0.0042
      9  CE1       22.9900   11.0570   44.2380 C.ar   57  PHE57      -0.0003
     10  CE2       23.3370   13.3760   43.6950 C.ar   57  PHE57      -0.0003
     11  CZ        22.5710   12.3840   44.2990 C.ar   57  PHE57      -0.0000
     12  N         30.7300   18.6220   37.1540 N.3    96  ASN96      -0.1240
     13  CA        29.9590   17.5090   37.6910 C.3    96  ASN96       0.1653
     14  C         29.9600   17.3900   39.2050 C.2    96  ASN96       0.2266
     15  O         28.9760   16.9360   39.7810 O.2    96  ASN96      -0.2867
     16  CB        30.3920   16.1920   37.0320 C.3    96  ASN96       0.1155
     17  CG        29.9730   16.1230   35.5650 C.2    96  ASN96       0.2627
     18  OD1       28.8370   16.4500   35.2240 O.2    96  ASN96      -0.2716
     19  ND2       30.8860   15.7010   34.6980 N.am   96  ASN96      -0.0877
     20  N         27.3200   19.7840   40.1900 N.3    99  PHE99      -0.1241
     21  CA        25.9800   19.2760   39.9000 C.3    99  PHE99       0.1605
     22  C         25.5380   18.2720   40.9660 C.2    99  PHE99       0.2264
     23  O         24.3770   18.2760   41.3870 O.2    99  PHE99      -0.2867
     24  CB        25.9210   18.6190   38.5140 C.3    99  PHE99       0.0534
     25  CG        25.8750   19.6010   37.3700 C.ar   99  PHE99      -0.0203
     26  CD1       24.9120   20.6090   37.3360 C.ar   99  PHE99      -0.0042
     27  CD2       26.7880   19.5130   36.3210 C.ar   99  PHE99      -0.0042
     28  CE1       24.8590   21.5170   36.2740 C.ar   99  PHE99      -0.0003
     29  CE2       26.7440   20.4140   35.2550 C.ar   99  PHE99      -0.0003
     30  CZ        25.7770   21.4190   35.2330 C.ar   99  PHE99      -0.0000
     31  N         22.3990   18.9380   43.2670 N.3   103  ASN103     -0.1240
     32  CA        21.3000   17.9750   43.2010 C.3   103  ASN103      0.1653
     33  C         20.9720   17.4240   44.5940 C.2   103  ASN103      0.2266
     34  O         19.8270   17.0690   44.8700 O.2   103  ASN103     -0.2867
     35  CB        21.6460   16.8290   42.2360 C.3   103  ASN103      0.1155
     36  CG        21.3590   17.1790   40.7780 C.2   103  ASN103      0.2627
     37  OD1       21.9510   16.6060   39.8580 O.2   103  ASN103     -0.2716
     38  ND2       20.4340   18.1080   40.5620 N.am  103  ASN103     -0.0877
     39  N         18.8480   20.0350   45.9670 N.3   106  LYS106     -0.1231
     40  CA        17.5610   20.0010   45.2700 C.3   106  LYS106      0.1693
     41  C         16.6780   18.8930   45.8560 C.2   106  LYS106      0.2591
     42  O         15.4630   19.0570   46.0000 O.2   106  LYS106     -0.2718
     43  CB        17.7960   19.7570   43.7730 C.3   106  LYS106      0.0285
     44  CG        16.5440   19.6420   42.9090 C.3   106  LYS106      0.0035
     45  CD        16.9260   19.5900   41.4310 C.3   106  LYS106      0.0206
     46  CE        15.7220   19.3410   40.5270 C.3   106  LYS106      0.1093
     47  NZ        15.2200   17.9440   40.6440 N.3   106  LYS106     -0.1314
     48  N         17.2990   17.7680   46.2020 N.am  107  ALA107     -0.1980
     49  CA        16.5820   16.6270   46.7630 C.3   107  ALA107      0.1597
     50  C         16.3070   16.7790   48.2600 C.2   107  ALA107      0.2287
     51  O         15.7230   15.8910   48.8790 O.2   107  ALA107     -0.2864
     52  CB        17.3730   15.3410   46.5080 C.3   107  ALA107      0.0319
     53  N         18.4490   16.7120   50.6540 N.3   109  LYS109     -0.1245
     54  CA        19.2970   15.8360   51.4550 C.3   109  LYS109      0.1561
     55  C         20.3010   16.6430   52.2800 C.2   109  LYS109      0.2260
     56  O         20.9040   16.1260   53.2190 O.2   109  LYS109     -0.2867
     57  CB        20.0040   14.8280   50.5480 C.3   109  LYS109      0.0271
     58  CG        19.0720   13.7070   50.1030 C.3   109  LYS109      0.0035
     59  CD        19.5750   13.0060   48.8640 C.3   109  LYS109      0.0206
     60  CE        18.5850   11.9370   48.4140 C.3   109  LYS109      0.1093
     61  NZ        18.8770   11.4610   47.0300 N.3   109  LYS109     -0.1314
     62  N         24.6640   28.1380   37.0930 N.3   153  TRP153     -0.1241
     63  CA        23.8880   27.0220   37.6170 C.3   153  TRP153      0.1605
     64  C         23.5160   27.1950   39.0900 C.2   153  TRP153      0.2264
     65  O         22.4290   26.7920   39.5030 O.2   153  TRP153     -0.2867
     66  CB        24.6300   25.6980   37.3940 C.3   153  TRP153      0.0550
     67  CG        24.4410   25.1580   36.0020 C.ar  153  TRP153      0.0003
     68  CD1       25.3920   25.0420   35.0200 C.ar  153  TRP153      0.0946
     69  CD2       23.2180   24.6680   35.4330 C.ar  153  TRP153      0.0152
     70  NE1       24.8320   24.5070   33.8770 N.ar  153  TRP153     -0.2442
     71  CE2       23.5020   24.2700   34.1030 C.ar  153  TRP153      0.0810
     72  CE3       21.9100   24.5260   35.9190 C.ar  153  TRP153      0.0012
     73  CZ2       22.5220   23.7370   33.2530 C.ar  153  TRP153      0.0191
     74  CZ3       20.9340   23.9960   35.0720 C.ar  153  TRP153      0.0001
     75  CH2       21.2490   23.6080   33.7530 C.ar  153  TRP153      0.0015
     76  N         20.6370   29.3970   39.0690 N.3   156  TYR156     -0.1227
     77  CA        19.4900   28.6770   38.5300 C.3   156  TYR156      0.1736
     78  C         18.8770   27.8090   39.6270 C.2   156  TYR156      0.2595
     79  O         17.6760   27.8810   39.8840 O.2   156  TYR156     -0.2718
     80  CB        19.9060   27.7800   37.3610 C.3   156  TYR156      0.0548
     81  CG        18.7260   27.1650   36.6380 C.ar  156  TYR156     -0.0200
     82  CD1       18.0670   27.8620   35.6240 C.ar  156  TYR156     -0.0009
     83  CD2       18.2420   25.9030   36.9930 C.ar  156  TYR156     -0.0009
     84  CE1       16.9570   27.3200   34.9780 C.ar  156  TYR156      0.0417
     85  CE2       17.1240   25.3530   36.3510 C.ar  156  TYR156      0.0417
     86  CZ        16.4920   26.0700   35.3440 C.ar  156  TYR156      0.1957
     87  OH        15.3990   25.5410   34.6950 O.3   156  TYR156     -0.2866
     88  N         19.7000   26.9810   40.2660 N.am  157  TYR157     -0.1976
     89  CA        19.2130   26.1040   41.3290 C.3   157  TYR157      0.1639
     90  C         18.5540   26.8710   42.4710 C.2   157  TYR157      0.2290
     91  O         17.6010   26.3860   43.0850 O.2   157  TYR157     -0.2864
     92  CB        20.3510   25.2310   41.8690 C.3   157  TYR157      0.0560
     93  CG        20.5170   23.9250   41.1210 C.ar  157  TYR157     -0.0198
     94  CD1       20.1130   22.7180   41.6890 C.ar  157  TYR157     -0.0009
     95  CD2       21.0680   23.8970   39.8430 C.ar  157  TYR157     -0.0009
     96  CE1       20.2530   21.5160   41.0070 C.ar  157  TYR157      0.0417
     97  CE2       21.2150   22.6980   39.1470 C.ar  157  TYR157      0.0417
     98  CZ        20.8060   21.5100   39.7360 C.ar  157  TYR157      0.1957
     99  OH        20.9580   20.3180   39.0590 O.3   157  TYR157     -0.2866
    100  N         14.8760   25.9350   42.1170 N.3   161  TYR161     -0.1241
    101  CA        14.6290   24.9010   43.1140 C.3   161  TYR161      0.1605
    102  C         14.7100   25.3740   44.5590 C.2   161  TYR161      0.2264
    103  O         14.5290   24.5810   45.4790 O.2   161  TYR161     -0.2867
    104  CB        15.5820   23.7250   42.8830 C.3   161  TYR161      0.0534
    105  CG        15.5260   23.1960   41.4690 C.ar  161  TYR161     -0.0201
    106  CD1       14.3180   22.7800   40.9060 C.ar  161  TYR161     -0.0009
    107  CD2       16.6760   23.1190   40.6870 C.ar  161  TYR161     -0.0009
    108  CE1       14.2590   22.3030   39.6000 C.ar  161  TYR161      0.0417
    109  CE2       16.6290   22.6430   39.3840 C.ar  161  TYR161      0.0417
    110  CZ        15.4190   22.2360   38.8470 C.ar  161  TYR161      0.1957
    111  OH        15.3760   21.7570   37.5600 O.3   161  TYR161     -0.2866
@<TRIPOS>BOND
     1    73    75   ar
     2    73    71   ar
     3    75    74   ar
     4    70    71   ar
     5    70    68   ar
     6    71    69   ar
     7    87    86    1
     8    19    17   am
     9    84    86   ar
    10    84    82   ar
    11    68    67   ar
    12    74    72   ar
    13    18    17    2
    14    30    29   ar
    15    30    28   ar
    16    29    27   ar
    17    86    85   ar
    18    69    72   ar
    19    69    67   ar
    20    17    16    1
    21    82    81   ar
    22    67    66    1
    23    28    26   ar
    24    27    25   ar
    25    85    83   ar
    26    81    83   ar
    27    81    80    1
    28    16    13    1
    29    62    63    1
    30    12    13    1
    31    26    25   ar
    32    80    77    1
    33    25    24    1
    34    66    63    1
    35   111   110    1
    36    63    64    1
    37    13    14    1
    38    24    21    1
    39    77    76    1
    40    77    78    1
    41   110   109   ar
    42   110   108   ar
    43    99    98    1
    44    64    65    2
    45    97    98   ar
    46    97    95   ar
    47    14    15    2
    48   109   107   ar
    49   108   106   ar
    50    78    79    2
    51    78    88   am
    52    98    96   ar
    53    95    93   ar
    54    37    36    2
    55    21    20    1
    56    21    22    1
    57    88    89    1
    58    46    47    1
    59    46    45    1
    60    38    36   am
    61   107   105   ar
    62    36    35    1
    63   106   105   ar
    64    22    23    2
    65    96    94   ar
    66    93    94   ar
    67    93    92    1
    68    89    92    1
    69    89    90    1
    70    45    44    1
    71   105   104    1
    72   100   101    1
    73    35    32    1
    74     5     6    1
    75     5     2    1
    76     1     2    1
    77    90    91    2
    78   104   101    1
    79    44    43    1
    80     6     8   ar
    81     6     7   ar
    82     8    10   ar
    83   101   102    1
    84     2     3    1
    85    32    31    1
    86    32    33    1
    87     7     9   ar
    88    10    11   ar
    89    43    40    1
    90     9    11   ar
    91     3     4    2
    92   102   103    2
    93    33    34    2
    94    40    41    1
    95    40    39    1
    96    41    42    2
    97    41    48   am
    98    48    49    1
    99    52    49    1
   100    49    50    1
   101    61    60    1
   102    50    51    2
   103    60    59    1
   104    59    58    1
   105    58    57    1
   106    57    54    1
   107    53    54    1
   108    54    55    1
   109    55    56    2
