@<TRIPOS>MOLECULE
tmp/2yy7A00.pdb
 75 72 0 0 0
SMALL
GASTEIGER

@<TRIPOS>ATOM
      1  N         45.7880   27.4220   36.3050 N.3    81  ALA81      -0.1231
      2  CA        46.9490   26.9430   35.5600 C.3    81  ALA81       0.1694
      3  C         46.9200   25.4340   35.3040 C.2    81  ALA81       0.2592
      4  O         47.1710   24.9790   34.1870 O.2    81  ALA81      -0.2718
      5  CB        48.2320   27.3350   36.2870 C.3    81  ALA81       0.0304
      6  N         46.6080   24.6600   36.3360 N.am   82  THR82      -0.1953
      7  CA        46.5510   23.2080   36.2110 C.3    82  THR82       0.1897
      8  C         45.5010   22.7480   35.1970 C.2    82  THR82       0.2313
      9  O         45.7310   21.8130   34.4270 O.2    82  THR82      -0.2863
     10  CB        46.2340   22.5510   37.5710 C.3    82  THR82       0.1794
     11  OG1       47.2490   22.9010   38.5220 O.3    82  THR82      -0.2208
     12  CG2       46.1830   21.0430   37.4310 C.3    82  THR82       0.0378
     13  N         44.5450   24.1010   32.4860 N.3    84  GLU84      -0.1231
     14  CA        44.9780   24.2750   31.1000 C.3    84  GLU84       0.1699
     15  C         45.7460   23.0580   30.6040 C.2    84  GLU84       0.2592
     16  O         45.7840   22.7890   29.4050 O.2    84  GLU84      -0.2718
     17  CB        45.8600   25.5200   30.9520 C.3    84  GLU84       0.0402
     18  CG        45.0980   26.8350   31.0150 C.3    84  GLU84       0.1161
     19  CD        44.0220   26.9450   29.9440 C.2    84  GLU84       0.3649
     20  OE1       44.3590   26.9630   28.7420 O.co2  84  GLU84      -0.2457
     21  OE2       42.8340   27.0140   30.3070 O.co2  84  GLU84      -0.2457
     22  N         46.3630   22.3270   31.5290 N.am   85  LYS85      -0.1980
     23  CA        47.1220   21.1410   31.1680 C.3    85  LYS85       0.1596
     24  C         46.2060   19.9410   30.9180 C.2    85  LYS85       0.2287
     25  O         46.6160   18.9610   30.2950 O.2    85  LYS85      -0.2864
     26  CB        48.1560   20.8260   32.2540 C.3    85  LYS85       0.0298
     27  CG        49.2670   21.8750   32.3540 C.3    85  LYS85       0.0038
     28  CD        50.3430   21.4500   33.3510 C.3    85  LYS85       0.0206
     29  CE        51.4370   22.4990   33.4690 C.3    85  LYS85       0.1093
     30  NZ        52.4250   22.1380   34.5250 N.3    85  LYS85      -0.1314
     31  N         42.1920   20.1780   30.0930 N.3    87  PRO87      -0.2116
     32  CA        40.8770   20.7960   29.9000 C.3    87  PRO87       0.1372
     33  C         39.6950   19.8590   30.1210 C.2    87  PRO87       0.2244
     34  O         38.7480   20.1960   30.8300 O.2    87  PRO87      -0.2868
     35  CB        40.9380   21.2980   28.4540 C.3    87  PRO87       0.0268
     36  CG        42.3910   21.5640   28.2440 C.3    87  PRO87       0.0207
     37  CD        43.0220   20.3530   28.8870 C.3    87  PRO87       0.0892
     38  N         47.5480   24.8910   44.8160 N.3   181  GLY181     -0.1210
     39  CA        47.2450   23.8080   43.8990 C.3   181  GLY181      0.1956
     40  C         47.4740   24.0710   42.4260 C.2   181  GLY181      0.2612
     41  O         46.9960   23.3130   41.5860 O.2   181  GLY181     -0.2717
     42  N         48.1910   25.1390   42.1000 N.am  182  GLY182     -0.1956
     43  CA        48.4480   25.4260   40.7020 C.3   182  GLY182      0.1869
     44  C         47.5950   26.5300   40.1180 C.2   182  GLY182      0.2309
     45  O         47.0820   26.4030   39.0080 O.2   182  GLY182     -0.2863
     46  N         56.0150   32.8200   32.1310 N.3   270  ASP270     -0.1225
     47  CA        55.7340   31.6570   31.2990 C.3   270  ASP270      0.1805
     48  C         54.2630   31.6820   30.8720 C.2   270  ASP270      0.2598
     49  O         53.6390   32.7420   30.9040 O.2   270  ASP270     -0.2718
     50  CB        56.1180   30.3490   32.0190 C.3   270  ASP270      0.1424
     51  CG        55.3050   30.0810   33.2800 C.2   270  ASP270      0.3668
     52  OD1       55.7120   29.1680   34.0300 O.co2 270  ASP270     -0.2456
     53  OD2       54.2780   30.7480   33.5240 O.co2 270  ASP270     -0.2456
     54  N         53.7040   30.5410   30.4750 N.am  271  PHE271     -0.1962
     55  CA        52.3170   30.5060   30.0130 C.3   271  PHE271      0.1771
     56  C         51.3210   31.1330   30.9870 C.2   271  PHE271      0.2619
     57  O         50.2660   31.6280   30.5780 O.2   271  PHE271     -0.2715
     58  CB        51.8990   29.0610   29.6710 C.3   271  PHE271      0.0574
     59  CG        51.4340   28.2480   30.8520 C.ar  271  PHE271     -0.0200
     60  CD1       50.1050   28.2870   31.2640 C.ar  271  PHE271     -0.0042
     61  CD2       52.3210   27.4340   31.5470 C.ar  271  PHE271     -0.0042
     62  CE1       49.6650   27.5250   32.3480 C.ar  271  PHE271     -0.0003
     63  CE2       51.8920   26.6690   32.6320 C.ar  271  PHE271     -0.0003
     64  CZ        50.5610   26.7150   33.0330 C.ar  271  PHE271     -0.0000
     65  N         51.6580   31.1310   32.2700 N.am  272  ARG272     -0.1977
     66  CA        50.7670   31.7020   33.2700 C.3   272  ARG272      0.1597
     67  C         50.5730   33.2080   33.1380 C.2   272  ARG272      0.2287
     68  O         49.5950   33.7570   33.6440 O.2   272  ARG272     -0.2864
     69  CB        51.2620   31.3230   34.6670 C.3   272  ARG272      0.0334
     70  CG        51.0580   29.8400   34.9290 C.3   272  ARG272      0.0492
     71  CD        51.7540   29.3560   36.1760 C.3   272  ARG272      0.2205
     72  NE        53.1980   29.2510   36.0000 N.pl3 272  ARG272     -0.0865
     73  CZ        53.9930   28.6190   36.8560 C.cat 272  ARG272      0.5346
     74  NH1       55.3010   28.5620   36.6370 N.pl3 272  ARG272      0.1354
     75  NH2       53.4700   28.0390   37.9310 N.pl3 272  ARG272      0.1354
@<TRIPOS>BOND
     1    36    35    1
     2    36    37    1
     3    35    32    1
     4    20    19   ar
     5    37    31    1
     6    16    15    2
     7    58    55    1
     8    58    59    1
     9    32    31    1
    10    32    33    1
    11    19    21   ar
    12    19    18    1
    13    55    54    1
    14    55    56    1
    15    33    34    2
    16    25    24    2
    17    54    48   am
    18    57    56    2
    19    15    14    1
    20    15    22   am
    21    59    60   ar
    22    59    61   ar
    23    48    49    2
    24    48    47    1
    25    24    23    1
    26    17    18    1
    27    17    14    1
    28    56    65   am
    29    14    13    1
    30    23    22    1
    31    23    26    1
    32    60    62   ar
    33    47    50    1
    34    47    46    1
    35    61    63   ar
    36    50    51    1
    37    26    27    1
    38    65    66    1
    39    62    64   ar
    40    27    28    1
    41    63    64   ar
    42    67    66    1
    43    67    68    2
    44    66    69    1
    45    51    53   ar
    46    51    52   ar
    47    28    29    1
    48    29    30    1
    49     4     3    2
    50     9     8    2
    51    69    70    1
    52    70    71    1
    53     8     7    1
    54     3     2    1
    55     3     6   am
    56     2     5    1
    57     2     1    1
    58    72    71    1
    59    72    73    2
    60     7     6    1
    61     7    10    1
    62    74    73    1
    63    73    75    1
    64    12    10    1
    65    10    11    1
    66    45    44    2
    67    44    43    1
    68    43    42    1
    69    41    40    2
    70    42    40   am
    71    40    39    1
    72    39    38    1
