@<TRIPOS>MOLECULE
tmp/2yyeB01.pdb
 140 132 0 0 0
SMALL
GASTEIGER

@<TRIPOS>ATOM
      1  N         38.6320   -4.0770  106.2640 N.3    27  GLY27      -0.1225
      2  CA        38.1380   -5.3250  105.6900 C.3    27  GLY27       0.1811
      3  C         37.0470   -5.2300  104.6280 C.2    27  GLY27       0.2280
      4  O         36.6400   -6.2530  104.0530 O.2    27  GLY27      -0.2866
      5  N         37.1580   -3.5380  101.6030 N.3    29  LEU29      -0.1231
      6  CA        37.7040   -3.6860  100.2580 C.3    29  LEU29       0.1693
      7  C         37.8560   -5.1790   99.9390 C.2    29  LEU29       0.2591
      8  O         37.6020   -5.6140   98.8130 O.2    29  LEU29      -0.2718
      9  CB        39.0570   -2.9590  100.1650 C.3    29  LEU29       0.0284
     10  CG        39.5980   -2.5650   98.7850 C.3    29  LEU29       0.0019
     11  CD1       39.8300   -3.8050   97.9610 C.3    29  LEU29       0.0001
     12  CD2       38.6160   -1.6290   98.0850 C.3    29  LEU29       0.0001
     13  N         38.2510   -5.9580  100.9430 N.am   30  GLN30      -0.1979
     14  CA        38.4230   -7.3940  100.7690 C.3    30  GLN30       0.1601
     15  C         37.0690   -8.0450  100.4820 C.2    30  GLN30       0.2287
     16  O         36.9660   -8.9380   99.6350 O.2    30  GLN30      -0.2864
     17  CB        39.0520   -8.0110  102.0220 C.3    30  GLN30       0.0394
     18  CG        39.5860   -9.4180  101.8150 C.3    30  GLN30       0.0908
     19  CD        38.6320  -10.4890  102.2880 C.2    30  GLN30       0.2608
     20  OE1       38.8060  -11.6730  101.9790 O.2    30  GLN30      -0.2717
     21  NE2       37.6190  -10.0870  103.0520 N.am   30  GLN30      -0.0878
     22  N         36.0300   -7.0190   96.8260 N.3    33  LEU33      -0.1245
     23  CA        36.7320   -7.7750   95.7960 C.3    33  LEU33       0.1561
     24  C         36.2850   -9.2270   95.6900 C.2    33  LEU33       0.2260
     25  O         36.7240   -9.9560   94.8010 O.2    33  LEU33      -0.2867
     26  CB        38.2370   -7.7010   96.0300 C.3    33  LEU33       0.0270
     27  CG        38.7310   -6.2600   96.1830 C.3    33  LEU33       0.0019
     28  CD1       40.2250   -6.2320   95.9430 C.3    33  LEU33       0.0001
     29  CD2       38.0300   -5.3360   95.1990 C.3    33  LEU33       0.0001
     30  N         43.9360  -11.1780   98.1090 N.3    48  ILE48      -0.1231
     31  CA        43.3220   -9.9600   98.6230 C.3    48  ILE48       0.1692
     32  C         42.8360  -10.0110  100.0730 C.2    48  ILE48       0.2593
     33  O         41.9810  -10.8250  100.4180 O.2    48  ILE48      -0.2718
     34  CB        42.1090   -9.5720   97.7760 C.3    48  ILE48       0.0266
     35  CG1       42.3730   -9.9060   96.3100 C.3    48  ILE48       0.0019
     36  CG2       41.7650   -8.1160   98.0150 C.3    48  ILE48       0.0020
     37  CD1       43.5420   -9.2260   95.7230 C.3    48  ILE48       0.0001
     38  N         43.3600   -9.1380  100.9220 N.am   49  GLY49      -0.1942
     39  CA        42.8600   -9.1300  102.2780 C.3    49  GLY49       0.2014
     40  C         43.8350   -8.9390  103.4160 C.2    49  GLY49       0.2639
     41  O         43.4590   -8.4260  104.4630 O.2    49  GLY49      -0.2714
     42  N         45.0840   -9.3360  103.2230 N.am   50  ASP50      -0.1957
     43  CA        46.0590   -9.2170  104.2860 C.3    50  ASP50       0.1840
     44  C         46.9890   -8.0300  104.0250 C.2    50  ASP50       0.2622
     45  O         46.7090   -7.1810  103.1750 O.2    50  ASP50      -0.2715
     46  CB        46.8700  -10.5210  104.3790 C.3    50  ASP50       0.1450
     47  CG        47.2290  -10.8820  105.8180 C.2    50  ASP50       0.3671
     48  OD1       48.0240  -10.1510  106.4530 O.co2  50  ASP50      -0.2456
     49  OD2       46.6990  -11.8970  106.3140 O.co2  50  ASP50      -0.2456
     50  N         48.0890   -7.9690  104.7640 N.am   51  ASP51      -0.1957
     51  CA        49.0440   -6.8850  104.5870 C.3    51  ASP51       0.1840
     52  C         49.8180   -7.0090  103.2910 C.2    51  ASP51       0.2621
     53  O         50.3270   -6.0200  102.7580 O.2    51  ASP51      -0.2715
     54  CB        49.9850   -6.8370  105.7840 C.3    51  ASP51       0.1450
     55  CG        49.2380   -6.5240  107.0630 C.2    51  ASP51       0.3671
     56  OD1       49.1020   -7.4080  107.9370 O.co2  51  ASP51      -0.2456
     57  OD2       48.7430   -5.3890  107.1680 O.co2  51  ASP51      -0.2456
     58  N         49.9080   -8.2330  102.7830 N.am   52  ALA52      -0.1977
     59  CA        50.6130   -8.4820  101.5350 C.3    52  ALA52       0.1597
     60  C         50.0530   -9.7320  100.8840 C.2    52  ALA52       0.2287
     61  O         49.4110  -10.5390  101.5430 O.2    52  ALA52      -0.2864
     62  CB        52.1170   -8.6630  101.8010 C.3    52  ALA52       0.0319
     63  N         53.6050   -6.2580   98.1850 N.3    65  THR65      -0.1203
     64  CA        52.7820   -5.1890   98.7410 C.3    65  THR65       0.1994
     65  C         53.0630   -3.8510   98.0270 C.2    65  THR65       0.2618
     66  O         54.1170   -3.6650   97.3910 O.2    65  THR65      -0.2717
     67  CB        53.0670   -5.0500  100.2720 C.3    65  THR65       0.1784
     68  OG1       52.2150   -4.0490  100.8490 O.3    65  THR65      -0.2211
     69  CG2       54.5310   -4.6380  100.5060 C.3    65  THR65       0.0376
     70  N         52.1070   -2.9310   98.1250 N.am   66  VAL66      -0.1965
     71  CA        52.2730   -1.6120   97.5420 C.3    66  VAL66       0.1727
     72  C         51.5600   -0.6000   98.4360 C.2    66  VAL66       0.2616
     73  O         50.5070   -0.8850   99.0190 O.2    66  VAL66      -0.2715
     74  CB        51.7190   -1.5230   96.0690 C.3    66  VAL66       0.0290
     75  CG1       50.1790   -1.6890   96.0440 C.3    66  VAL66       0.0023
     76  CG2       52.1470   -0.1950   95.4380 C.3    66  VAL66       0.0023
     77  N         52.1700    0.5730   98.5660 N.am   67  ASP67      -0.1971
     78  CA        51.6320    1.6570   99.3680 C.3    67  ASP67       0.1709
     79  C         52.2370    2.9990   98.9200 C.2    67  ASP67       0.2293
     80  O         53.4450    3.0910   98.7320 O.2    67  ASP67      -0.2864
     81  CB        51.9550    1.4400  100.8450 C.3    67  ASP67       0.1436
     82  CG        50.8520    0.6900  101.5900 C.2    67  ASP67       0.3671
     83  OD1       49.6570    1.0350  101.4390 O.co2  67  ASP67      -0.2456
     84  OD2       51.1850   -0.2430  102.3380 O.co2  67  ASP67      -0.2456
     85  N         57.2620    3.0210  105.4440 N.3    86  ASN86      -0.1240
     86  CA        55.8420    2.6870  105.4280 C.3    86  ASN86       0.1653
     87  C         55.5310    1.5620  104.4350 C.2    86  ASN86       0.2266
     88  O         54.7570    0.6590  104.7450 O.2    86  ASN86      -0.2867
     89  CB        55.0110    3.9240  105.0620 C.3    86  ASN86       0.1155
     90  CG        53.5200    3.6550  105.1160 C.2    86  ASN86       0.2627
     91  OD1       52.9580    3.4360  106.1960 O.2    86  ASN86      -0.2716
     92  ND2       52.8700    3.6640  103.9500 N.am   86  ASN86      -0.0877
     93  N         54.6350   -3.5540  105.3750 N.3    90  ASP90      -0.1239
     94  CA        53.7730   -4.7070  105.0990 C.3    90  ASP90       0.1674
     95  C         54.4960   -6.0130  104.8080 C.2    90  ASP90       0.2266
     96  O         53.9220   -7.0880  105.0090 O.2    90  ASP90      -0.2867
     97  CB        52.8040   -4.4070  103.9650 C.3    90  ASP90       0.1410
     98  CG        51.6540   -3.5310  104.4230 C.2    90  ASP90       0.3668
     99  OD1       51.3410   -2.5580  103.7300 O.co2  90  ASP90      -0.2456
    100  OD2       51.0720   -3.8140  105.4840 O.co2  90  ASP90      -0.2456
    101  N         50.2990   -4.5210  110.7090 N.3   226  ASP226     -0.1239
    102  CA        50.9650   -3.3000  111.1660 C.3   226  ASP226      0.1674
    103  C         49.8780   -2.2290  111.3120 C.2   226  ASP226      0.2266
    104  O         48.8160   -2.3300  110.6980 O.2   226  ASP226     -0.2867
    105  CB        52.0710   -2.8640  110.2060 C.3   226  ASP226      0.1410
    106  CG        51.5760   -2.6870  108.7860 C.2   226  ASP226      0.3668
    107  OD1       50.6520   -3.4240  108.4080 O.co2 226  ASP226     -0.2456
    108  OD2       52.1210   -1.8390  108.0450 O.co2 226  ASP226     -0.2456
    109  N         48.3570    1.1540  110.5290 N.3   228  THR228     -0.1203
    110  CA        48.4180    2.2760  109.6090 C.3   228  THR228      0.1994
    111  C         47.1190    3.0920  109.5230 C.2   228  THR228      0.2618
    112  O         46.5700    3.5110  110.5480 O.2   228  THR228     -0.2717
    113  CB        48.8880    1.8290  108.1770 C.3   228  THR228      0.1784
    114  OG1       48.3400    0.5530  107.8400 O.3   228  THR228     -0.2211
    115  CG2       50.4020    1.7190  108.1330 C.3   228  THR228      0.0376
    116  N         46.6230    3.2790  108.3040 N.am  229  GLY229     -0.1942
    117  CA        45.4420    4.1030  108.0740 C.3   229  GLY229      0.2014
    118  C         44.1300    3.9280  108.8330 C.2   229  GLY229      0.2638
    119  O         43.3960    4.9080  108.9990 O.2   229  GLY229     -0.2714
    120  N         43.8140    2.7200  109.2900 N.am  230  PHE230     -0.1973
    121  CA        42.5580    2.5180  109.9930 C.3   230  PHE230      0.1639
    122  C         42.6370    2.7370  111.4900 C.2   230  PHE230      0.2290
    123  O         41.6510    2.5490  112.1960 O.2   230  PHE230     -0.2864
    124  CB        41.9960    1.1220  109.6820 C.3   230  PHE230      0.0560
    125  CG        41.4380    0.9950  108.2800 C.ar  230  PHE230     -0.0200
    126  CD1       40.5300    1.9340  107.7920 C.ar  230  PHE230     -0.0042
    127  CD2       41.8380   -0.0410  107.4390 C.ar  230  PHE230     -0.0042
    128  CE1       40.0300    1.8470  106.4820 C.ar  230  PHE230     -0.0003
    129  CE2       41.3430   -0.1390  106.1260 C.ar  230  PHE230     -0.0003
    130  CZ        40.4390    0.8080  105.6500 C.ar  230  PHE230     -0.0000
    131  N         42.8630   -1.6770  112.9460 N.3   235  HIS235     -0.1241
    132  CA        43.7940   -2.7460  112.5950 C.3   235  HIS235      0.1621
    133  C         43.7070   -3.9060  113.5970 C.2   235  HIS235      0.2264
    134  O         43.8750   -5.0660  113.2160 O.2   235  HIS235     -0.2867
    135  CB        45.2110   -2.1770  112.4390 C.3   235  HIS235      0.0745
    136  CG        45.3650   -1.3410  111.2010 C.ar  235  HIS235      0.0817
    137  ND1       45.4050   -1.8910  109.9350 N.ar  235  HIS235     -0.2268
    138  CD2       45.3850    0.0050  111.0250 C.ar  235  HIS235      0.1154
    139  CE1       45.4390   -0.9220  109.0350 C.ar  235  HIS235      0.1986
    140  NE2       45.4270    0.2370  109.6690 N.ar  235  HIS235     -0.2212
@<TRIPOS>BOND
     1    25    24    2
     2    29    27    1
     3    76    74    1
     4    24    23    1
     5    37    35    1
     6    23    26    1
     7    23    22    1
     8    28    27    1
     9    26    27    1
    10    75    74    1
    11    74    71    1
    12    35    34    1
    13    66    65    2
    14    71    70    1
    15    71    72    1
    16    34    36    1
    17    34    31    1
    18    11    10    1
    19    65    70   am
    20    65    64    1
    21    12    10    1
    22    30    31    1
    23    63    64    1
    24    72    77   am
    25    72    73    2
    26    77    78    1
    27    31    32    1
    28    80    79    2
    29    64    67    1
    30    10     9    1
    31     8     7    2
    32    79    78    1
    33    78    81    1
    34    16    15    2
    35     7     6    1
    36     7    13   am
    37    32    33    2
    38    32    38   am
    39     9     6    1
    40     6     5    1
    41    67    69    1
    42    67    68    1
    43    15    14    1
    44    14    13    1
    45    14    17    1
    46    81    82    1
    47    60    59    1
    48    60    61    2
    49    38    39    1
    50    83    82   ar
    51    59    62    1
    52    59    58    1
    53    82    84   ar
    54    18    17    1
    55    18    19    1
    56    20    19    2
    57    39    40    1
    58    19    21   am
    59    53    52    2
    60    58    52   am
    61    45    44    2
    62    42    40   am
    63    42    43    1
    64    52    51    1
    65    40    41    2
    66    99    98   ar
    67    92    90   am
    68    97    98    1
    69    97    94    1
    70    44    43    1
    71    44    50   am
    72     4     3    2
    73    43    46    1
    74    46    47    1
    75    98   100   ar
    76    87    88    2
    77    87    86    1
    78    51    50    1
    79    51    54    1
    80     3     2    1
    81    95    96    2
    82    95    94    1
    83    89    90    1
    84    89    86    1
    85    94    93    1
    86    90    91    2
    87    86    85    1
    88   130   129   ar
    89   130   128   ar
    90     2     1    1
    91    54    55    1
    92    47    49   ar
    93    47    48   ar
    94   129   127   ar
    95   128   126   ar
    96    55    57   ar
    97    55    56   ar
    98   127   125   ar
    99   126   125   ar
   100   114   113    1
   101   108   106   ar
   102   117   116    1
   103   117   118    1
   104   115   113    1
   105   113   110    1
   106   125   124    1
   107   116   111   am
   108   107   106   ar
   109   106   105    1
   110   118   119    2
   111   118   120   am
   112   139   140   ar
   113   139   137   ar
   114   120   121    1
   115   111   110    1
   116   111   112    2
   117   110   109    1
   118   140   138   ar
   119   124   121    1
   120   137   136   ar
   121   121   122    1
   122   105   102    1
   123   104   103    2
   124   101   102    1
   125   138   136   ar
   126   102   103    1
   127   136   135    1
   128   122   123    2
   129   135   132    1
   130   132   131    1
   131   132   133    1
   132   134   133    2
