@<TRIPOS>MOLECULE
tmp/2yyeB00.pdb
 71 68 0 0 0
SMALL
GASTEIGER

@<TRIPOS>ATOM
      1  N         59.5520    2.3220   92.5790 N.3   103  ALA103     -0.1245
      2  CA        59.0220    3.5650   93.1310 C.3   103  ALA103      0.1562
      3  C         57.9080    4.2000   92.3060 C.2   103  ALA103      0.2260
      4  O         57.9930    4.2910   91.0820 O.2   103  ALA103     -0.2867
      5  CB        60.1670    4.5850   93.3250 C.3   103  ALA103      0.0290
      6  N         56.0080    7.6740   91.8310 N.3   105  SER105     -0.1217
      7  CA        56.0760    9.1030   92.1420 C.3   105  SER105      0.1889
      8  C         55.0440    9.9410   91.3990 C.2   105  SER105      0.2288
      9  O         54.9780    9.9130   90.1600 O.2   105  SER105     -0.2866
     10  CB        57.4640    9.6510   91.7890 C.3   105  SER105      0.2089
     11  OG        58.4810    8.9310   92.4510 O.3   105  SER105     -0.2183
     12  N         62.2360   16.8950   94.2380 N.3   117  PHE117     -0.1241
     13  CA        61.9880   15.5230   93.8290 C.3   117  PHE117      0.1605
     14  C         63.2560   14.6830   94.0430 C.2   117  PHE117      0.2264
     15  O         63.1810   13.5280   94.4660 O.2   117  PHE117     -0.2867
     16  CB        61.5460   15.5010   92.3570 C.3   117  PHE117      0.0534
     17  CG        61.5390   14.1290   91.7300 C.ar  117  PHE117     -0.0203
     18  CD1       62.6610   13.6520   91.0490 C.ar  117  PHE117     -0.0042
     19  CD2       60.4040   13.3180   91.8080 C.ar  117  PHE117     -0.0042
     20  CE1       62.6570   12.3890   90.4510 C.ar  117  PHE117     -0.0003
     21  CE2       60.3860   12.0490   91.2140 C.ar  117  PHE117     -0.0003
     22  CZ        61.5150   11.5830   90.5330 C.ar  117  PHE117     -0.0000
     23  N         63.6240   11.2050   96.4420 N.3   121  ILE121     -0.1245
     24  CA        64.2780    9.9970   95.9560 C.3   121  ILE121      0.1561
     25  C         65.5030    9.6570   96.8280 C.2   121  ILE121      0.2260
     26  O         65.7200    8.4960   97.1800 O.2   121  ILE121     -0.2867
     27  CB        64.7020   10.1800   94.4610 C.3   121  ILE121      0.0252
     28  CG1       63.4610   10.2430   93.5620 C.3   121  ILE121      0.0019
     29  CG2       65.5900    9.0380   94.0080 C.3   121  ILE121      0.0019
     30  CD1       62.6740    8.9380   93.4890 C.3   121  ILE121      0.0001
     31  N         66.2770   -1.0620   94.6070 N.3   135  LEU135     -0.1231
     32  CA        65.2880   -0.3050   93.8260 C.3   135  LEU135      0.1693
     33  C         65.5520   -0.7130   92.3840 C.2   135  LEU135      0.2592
     34  O         66.6710   -0.5530   91.8970 O.2   135  LEU135     -0.2718
     35  CB        65.5030    1.2070   93.9580 C.3   135  LEU135      0.0284
     36  CG        64.4820    2.0440   93.1780 C.3   135  LEU135      0.0019
     37  CD1       63.0410    1.8140   93.7200 C.3   135  LEU135      0.0001
     38  CD2       64.8670    3.5060   93.3070 C.3   135  LEU135      0.0001
     39  N         64.5370   -1.2290   91.6990 N.am  136  LEU136     -0.1966
     40  CA        64.7310   -1.7050   90.3370 C.3   136  LEU136      0.1728
     41  C         64.1470   -0.8530   89.2390 C.2   136  LEU136      0.2617
     42  O         64.3380   -1.1550   88.0570 O.2   136  LEU136     -0.2715
     43  CB        64.1620   -3.1150   90.1970 C.3   136  LEU136      0.0311
     44  CG        64.9160   -4.2120   90.9260 C.3   136  LEU136      0.0022
     45  CD1       64.1600   -5.5020   90.7440 C.3   136  LEU136      0.0001
     46  CD2       66.3340   -4.3220   90.3820 C.3   136  LEU136      0.0001
     47  N         63.4250    0.1920   89.6220 N.am  137  GLY137     -0.1940
     48  CA        62.8020    1.0570   88.6400 C.3   137  GLY137      0.2014
     49  C         61.5870    1.7260   89.2490 C.2   137  GLY137      0.2639
     50  O         61.4660    1.8200   90.4740 O.2   137  GLY137     -0.2714
     51  N         60.6870    2.1890   88.3950 N.am  138  GLY138     -0.1939
     52  CA        59.5020    2.8670   88.8830 C.3   138  GLY138      0.2014
     53  C         58.7570    3.5500   87.7590 C.2   138  GLY138      0.2639
     54  O         58.9420    3.2090   86.5760 O.2   138  GLY138     -0.2714
     55  N         57.8910    4.4930   88.1310 N.am  139  HIS139     -0.1959
     56  CA        57.1080    5.2750   87.1750 C.3   139  HIS139      0.1787
     57  C         56.8330    6.6550   87.7840 C.2   139  HIS139      0.2620
     58  O         56.5550    6.7970   88.9840 O.2   139  HIS139     -0.2715
     59  CB        55.7670    4.6030   86.8170 C.3   139  HIS139      0.0785
     60  CG        54.9950    5.3410   85.7630 C.ar  139  HIS139      0.0821
     61  ND1       55.3950    5.3830   84.4420 N.ar  139  HIS139     -0.2267
     62  CD2       53.8880    6.1200   85.8450 C.ar  139  HIS139      0.1154
     63  CE1       54.5720    6.1550   83.7560 C.ar  139  HIS139      0.1986
     64  NE2       53.6500    6.6170   84.5850 N.ar  139  HIS139     -0.2212
     65  N         56.9160    7.6700   86.9460 N.am  140  THR140     -0.1951
     66  CA        56.7050    9.0300   87.4020 C.3   140  THR140      0.1897
     67  C         55.5810    9.6430   86.6020 C.2   140  THR140      0.2313
     68  O         55.5750    9.6010   85.3720 O.2   140  THR140     -0.2863
     69  CB        57.9860    9.8580   87.2350 C.3   140  THR140      0.1794
     70  OG1       59.0560    9.2040   87.9340 O.3   140  THR140     -0.2208
     71  CG2       57.8020   11.2540   87.7980 C.3   140  THR140      0.0378
@<TRIPOS>BOND
     1    63    61   ar
     2    63    64   ar
     3    61    60   ar
     4    64    62   ar
     5    68    67    2
     6    60    62   ar
     7    60    59    1
     8    54    53    2
     9    67    66    1
    10    59    56    1
    11    65    66    1
    12    65    57   am
    13    56    57    1
    14    56    55    1
    15    69    66    1
    16    69    71    1
    17    69    70    1
    18    53    55   am
    19    53    52    1
    20    57    58    2
    21    42    41    2
    22    51    52    1
    23    51    49   am
    24    48    49    1
    25    48    47    1
    26    41    47   am
    27    41    40    1
    28    49    50    2
    29     9     8    2
    30    43    40    1
    31    43    44    1
    32    40    39    1
    33    46    44    1
    34    20    22   ar
    35    20    18   ar
    36    22    21   ar
    37    45    44    1
    38    18    17   ar
    39     4     3    2
    40    21    19   ar
    41     8     7    1
    42    39    33   am
    43    17    19   ar
    44    17    16    1
    45    10     7    1
    46    10    11    1
    47     6     7    1
    48    34    33    2
    49     3     2    1
    50    16    13    1
    51    33    32    1
    52     1     2    1
    53     2     5    1
    54    36    38    1
    55    36    37    1
    56    36    35    1
    57    30    28    1
    58    28    27    1
    59    32    35    1
    60    32    31    1
    61    13    14    1
    62    13    12    1
    63    29    27    1
    64    14    15    2
    65    27    24    1
    66    24    23    1
    67    24    25    1
    68    25    26    2
