@<TRIPOS>MOLECULE
tmp/2yyjA00.pdb
 199 189 0 0 0
SMALL
GASTEIGER

@<TRIPOS>ATOM
      1  N          7.0880   21.7760   17.1450 N.3    99  ARG99      -0.1245
      2  CA         8.2610   22.0820   17.9490 C.3    99  ARG99       0.1563
      3  C          8.0340   22.9870   19.1510 C.2    99  ARG99       0.2260
      4  O          8.8070   23.9200   19.3910 O.2    99  ARG99      -0.2867
      5  CB         9.3690   22.6680   17.0660 C.3    99  ARG99       0.0307
      6  CG        10.3940   21.6360   16.6030 C.3    99  ARG99       0.0489
      7  CD         9.8110   20.6360   15.6180 C.3    99  ARG99       0.2205
      8  NE        10.6780   19.4690   15.4610 N.pl3  99  ARG99      -0.0865
      9  CZ        10.7670   18.4820   16.3480 C.cat  99  ARG99       0.5346
     10  NH1       10.0360   18.5140   17.4550 N.pl3  99  ARG99       0.1354
     11  NH2       11.5960   17.4700   16.1390 N.pl3  99  ARG99       0.1354
     12  N         16.0440   24.1460   17.8550 N.3   141  HIS141     -0.1226
     13  CA        17.2140   23.2900   17.6940 C.3   141  HIS141      0.1752
     14  C         17.4660   22.8980   16.2480 C.2   141  HIS141      0.2596
     15  O         16.5730   22.9750   15.4080 O.2   141  HIS141     -0.2718
     16  CB        17.0620   22.0200   18.5390 C.3   141  HIS141      0.0759
     17  CG        16.0970   21.0220   17.9700 C.ar  141  HIS141      0.0818
     18  ND1       14.8130   21.3550   17.5940 N.ar  141  HIS141     -0.2268
     19  CD2       16.2300   19.6970   17.7230 C.ar  141  HIS141      0.1154
     20  CE1       14.1980   20.2780   17.1370 C.ar  141  HIS141      0.1986
     21  NE2       15.0350   19.2590   17.2040 N.ar  141  HIS141     -0.2212
     22  N         18.6980   22.4810   15.9760 N.am  142  ALA142     -0.1966
     23  CA        19.1100   22.0580   14.6400 C.3   142  ALA142      0.1728
     24  C         20.1660   20.9740   14.8150 C.2   142  ALA142      0.2616
     25  O         21.2250   21.2210   15.4010 O.2   142  ALA142     -0.2715
     26  CB        19.6800   23.2390   13.8680 C.3   142  ALA142      0.0334
     27  N         19.8830   19.7800   14.2960 N.am  143  LEU143     -0.1963
     28  CA        20.7880   18.6410   14.4410 C.3   143  LEU143      0.1728
     29  C         21.3970   18.1070   13.1530 C.2   143  LEU143      0.2616
     30  O         22.2900   17.2570   13.2000 O.2   143  LEU143     -0.2715
     31  CB        20.0470   17.4740   15.1020 C.3   143  LEU143      0.0311
     32  CG        19.1590   17.7390   16.3180 C.3   143  LEU143      0.0022
     33  CD1       18.6180   16.4100   16.8410 C.3   143  LEU143      0.0001
     34  CD2       19.9540   18.4430   17.4000 C.3   143  LEU143      0.0001
     35  N         20.9230   18.5870   12.0090 N.am  144  THR144     -0.1951
     36  CA        21.4100   18.0670   10.7360 C.3   144  THR144      0.1897
     37  C         22.3450   18.9730    9.9430 C.2   144  THR144      0.2313
     38  O         22.2700   20.2000   10.0200 O.2   144  THR144     -0.2863
     39  CB        20.2190   17.6570    9.8370 C.3   144  THR144      0.1794
     40  OG1       19.5310   18.8270    9.3790 O.3   144  THR144     -0.2208
     41  CG2       19.2380   16.7970   10.6270 C.3   144  THR144      0.0378
     42  N         22.3370   19.7940    3.3770 N.3   147  GLN147     -0.1245
     43  CA        22.1070   18.7990    2.3390 C.3   147  GLN147      0.1566
     44  C         22.8240   19.2810    1.0780 C.2   147  GLN147      0.2260
     45  O         22.2560   20.0190    0.2730 O.2   147  GLN147     -0.2867
     46  CB        20.6050   18.6860    2.0920 C.3   147  GLN147      0.0367
     47  CG        20.1770   17.5960    1.1460 C.3   147  GLN147      0.0905
     48  CD        18.6950   17.6930    0.8370 C.2   147  GLN147      0.2608
     49  OE1       18.2410   18.6810    0.2630 O.2   147  GLN147     -0.2717
     50  NE2       17.9300   16.6740    1.2350 N.am  147  GLN147     -0.0878
     51  N         25.1450   14.2190   -0.2480 N.3   150  ARG150     -0.1245
     52  CA        24.8360   13.1130    0.6500 C.3   150  ARG150      0.1563
     53  C         25.5720   11.8100    0.3450 C.2   150  ARG150      0.2260
     54  O         25.4470   10.8390    1.0870 O.2   150  ARG150     -0.2867
     55  CB        23.3240   12.8610    0.6760 C.3   150  ARG150      0.0307
     56  CG        22.5080   13.9900    1.3050 C.3   150  ARG150      0.0489
     57  CD        22.9200   14.2470    2.7540 C.3   150  ARG150      0.2205
     58  NE        21.9770   15.1130    3.4640 N.pl3 150  ARG150     -0.0865
     59  CZ        22.3220   15.9800    4.4120 C.cat 150  ARG150      0.5346
     60  NH1       23.5960   16.1120    4.7630 N.pl3 150  ARG150      0.1354
     61  NH2       21.3940   16.7020    5.0270 N.pl3 150  ARG150      0.1354
     62  N         21.2020   22.5450    8.6760 N.3   181  MET181     -0.1230
     63  CA        20.1750   22.6170    7.6420 C.3   181  MET181      0.1702
     64  C         18.8050   23.1540    8.0330 C.2   181  MET181      0.2593
     65  O         18.2420   23.9930    7.3240 O.2   181  MET181     -0.2718
     66  CB        19.9900   21.2330    7.0070 C.3   181  MET181      0.0401
     67  CG        19.0930   21.2230    5.7700 C.3   181  MET181      0.0596
     68  SD        19.8840   21.9800    4.3300 S.3   181  MET181     -0.1393
     69  CE        18.6770   21.5610    3.0330 C.3   181  MET181      0.0692
     70  N         18.2730   22.6840    9.1580 N.am  182  THR182     -0.1953
     71  CA        16.9270   23.0730    9.5620 C.3   182  THR182      0.1897
     72  C         16.6710   23.2610   11.0520 C.2   182  THR182      0.2313
     73  O         17.0650   22.4360   11.8730 O.2   182  THR182     -0.2863
     74  CB        15.9050   22.0130    9.0860 C.3   182  THR182      0.1794
     75  OG1       16.1130   21.7310    7.6990 O.3   182  THR182     -0.2208
     76  CG2       14.4740   22.5030    9.2970 C.3   182  THR182      0.0378
     77  N         13.2050   24.4310   13.2720 N.3   184  THR184     -0.1218
     78  CA        11.8000   24.8220   13.2380 C.3   184  THR184      0.1862
     79  C         11.4980   25.6410   14.4910 C.2   184  THR184      0.2287
     80  O         12.0790   25.4020   15.5500 O.2   184  THR184     -0.2866
     81  CB        10.8790   23.5880   13.1980 C.3   184  THR184      0.1770
     82  OG1       11.1420   22.8420   12.0050 O.3   184  THR184     -0.2211
     83  CG2        9.4150   24.0080   13.2110 C.3   184  THR184      0.0375
     84  N         20.4860    9.8130   15.3150 N.3   198  LEU198     -0.1231
     85  CA        20.7350    8.5290   14.6610 C.3   198  LEU198      0.1693
     86  C         21.9450    8.4680   13.7280 C.2   198  LEU198      0.2591
     87  O         22.4570    7.3800   13.4610 O.2   198  LEU198     -0.2718
     88  CB        19.4900    8.0650   13.8850 C.3   198  LEU198      0.0284
     89  CG        19.1860    8.7110   12.5280 C.3   198  LEU198      0.0019
     90  CD1       18.1830    7.8580   11.7530 C.3   198  LEU198      0.0001
     91  CD2       18.6400   10.1030   12.7360 C.3   198  LEU198      0.0001
     92  N         22.4010    9.6130   13.2240 N.am  199  LEU199     -0.1980
     93  CA        23.5500    9.6270   12.3160 C.3   199  LEU199      0.1596
     94  C         24.8690    9.7880   13.0670 C.2   199  LEU199      0.2287
     95  O         24.9260   10.4650   14.0890 O.2   199  LEU199     -0.2864
     96  CB        23.4070   10.7620   11.2970 C.3   199  LEU199      0.0297
     97  CG        22.1150   10.7810   10.4700 C.3   199  LEU199      0.0022
     98  CD1       22.1840   11.9180    9.4650 C.3   199  LEU199      0.0001
     99  CD2       21.9210    9.4480    9.7480 C.3   199  LEU199      0.0001
    100  N         10.5130   27.4040    9.2850 N.3   246  ASP246     -0.1239
    101  CA        11.7040   26.5560    9.2460 C.3   246  ASP246      0.1674
    102  C         12.8220   27.4430    8.7270 C.2   246  ASP246      0.2266
    103  O         12.5840   28.3220    7.9010 O.2   246  ASP246     -0.2867
    104  CB        11.5340   25.3830    8.2750 C.3   246  ASP246      0.1410
    105  CG        10.3260   24.5340    8.5880 C.2   246  ASP246      0.3668
    106  OD1       10.2080   24.0610    9.7400 O.co2 246  ASP246     -0.2456
    107  OD2        9.4980   24.3360    7.6760 O.co2 246  ASP246     -0.2456
    108  N          2.9280   20.9800    4.2120 N.3   432  ARG432     -0.1245
    109  CA         4.2010   20.9120    4.9190 C.3   432  ARG432      0.1563
    110  C          4.1030   19.9370    6.0910 C.2   432  ARG432      0.2260
    111  O          5.0490   19.2080    6.3730 O.2   432  ARG432     -0.2867
    112  CB         4.6210   22.2870    5.4440 C.3   432  ARG432      0.0307
    113  CG         5.7880   22.1990    6.4330 C.3   432  ARG432      0.0489
    114  CD         6.1030   23.5280    7.0860 C.3   432  ARG432      0.2205
    115  NE         7.0490   23.3670    8.1890 N.pl3 432  ARG432     -0.0865
    116  CZ         6.7420   22.8520    9.3760 C.cat 432  ARG432      0.5346
    117  NH1        5.5040   22.4430    9.6340 N.pl3 432  ARG432      0.1354
    118  NH2        7.6800   22.7340   10.3070 N.pl3 432  ARG432      0.1354
    119  N          5.1120   16.4730    5.0510 N.3   435  LEU435     -0.1231
    120  CA         6.5490   16.2700    4.9080 C.3   435  LEU435      0.1693
    121  C          7.1790   16.2160    6.2940 C.2   435  LEU435      0.2592
    122  O          8.0850   15.4200    6.5460 O.2   435  LEU435     -0.2718
    123  CB         7.1820   17.4060    4.0990 C.3   435  LEU435      0.0284
    124  CG         8.6730   17.2410    3.7900 C.3   435  LEU435      0.0019
    125  CD1        8.8700   16.1380    2.7550 C.3   435  LEU435      0.0001
    126  CD2        9.2390   18.5560    3.2620 C.3   435  LEU435      0.0001
    127  N          6.6890   17.0690    7.1890 N.am  436  TYR436     -0.1976
    128  CA         7.1860   17.1220    8.5580 C.3   436  TYR436      0.1639
    129  C          7.0310   15.7620    9.2450 C.2   436  TYR436      0.2290
    130  O          7.9830   15.2290    9.8190 O.2   436  TYR436     -0.2864
    131  CB         6.4190   18.1920    9.3490 C.3   436  TYR436      0.0560
    132  CG         6.8160   18.2780   10.8070 C.ar  436  TYR436     -0.0198
    133  CD1        7.9750   18.9380   11.1950 C.ar  436  TYR436     -0.0009
    134  CD2        6.0440   17.6600   11.7930 C.ar  436  TYR436     -0.0009
    135  CE1        8.3660   18.9840   12.5340 C.ar  436  TYR436      0.0417
    136  CE2        6.4230   17.6960   13.1340 C.ar  436  TYR436      0.0417
    137  CZ         7.5860   18.3570   13.4960 C.ar  436  TYR436      0.1957
    138  OH         7.9770   18.3720   14.8130 O.3   436  TYR436     -0.2866
    139  N          9.5090   13.0740    8.0460 N.3   439  PHE439     -0.1227
    140  CA        10.9330   13.2480    8.3410 C.3   439  PHE439      0.1736
    141  C         11.4470   13.8790    9.6350 C.2   439  PHE439      0.2595
    142  O         12.6270   13.7420    9.9410 O.2   439  PHE439     -0.2718
    143  CB        11.5550   14.0660    7.2040 C.3   439  PHE439      0.0547
    144  CG        11.7470   13.3060    5.9320 C.ar  439  PHE439     -0.0202
    145  CD1       12.7130   12.3100    5.8490 C.ar  439  PHE439     -0.0042
    146  CD2       10.9900   13.6070    4.8020 C.ar  439  PHE439     -0.0042
    147  CE1       12.9310   11.6250    4.6600 C.ar  439  PHE439     -0.0003
    148  CE2       11.1990   12.9260    3.6020 C.ar  439  PHE439     -0.0003
    149  CZ        12.1740   11.9330    3.5310 C.ar  439  PHE439     -0.0000
    150  N         10.6090   14.5730   10.3920 N.am  440  PHE440     -0.1976
    151  CA        11.1440   15.2630   11.5640 C.3   440  PHE440      0.1639
    152  C         12.0820   14.4750   12.4890 C.2   440  PHE440      0.2290
    153  O         13.0940   15.0220   12.9310 O.2   440  PHE440     -0.2864
    154  CB        10.0080   15.9220   12.3650 C.3   440  PHE440      0.0560
    155  CG         9.3980   15.0380   13.4050 C.ar  440  PHE440     -0.0200
    156  CD1       10.0030   14.8870   14.6500 C.ar  440  PHE440     -0.0042
    157  CD2        8.2280   14.3390   13.1380 C.ar  440  PHE440     -0.0042
    158  CE1        9.4500   14.0500   15.6120 C.ar  440  PHE440     -0.0003
    159  CE2        7.6680   13.5010   14.0930 C.ar  440  PHE440     -0.0003
    160  CZ         8.2810   13.3560   15.3330 C.ar  440  PHE440     -0.0000
    161  N         13.8520   11.9170   11.6160 N.3   442  GLY442     -0.1210
    162  CA        14.9100   11.3060   10.8340 C.3   442  GLY442      0.1956
    163  C         14.3950   10.6310    9.5800 C.2   442  GLY442      0.2611
    164  O         13.1900   10.4800    9.3900 O.2   442  GLY442     -0.2717
    165  N         15.3220   10.2390    8.7150 N.am  443  ASP443     -0.1973
    166  CA        14.9960    9.5520    7.4720 C.3   443  ASP443      0.1709
    167  C         14.5390    8.1350    7.8330 C.2   443  ASP443      0.2293
    168  O         15.2940    7.3720    8.4330 O.2   443  ASP443     -0.2864
    169  CB        16.2490    9.5270    6.5860 C.3   443  ASP443      0.1436
    170  CG        16.1300    8.5850    5.4040 C.2   443  ASP443      0.3671
    171  OD1       15.0000    8.2080    5.0290 O.co2 443  ASP443     -0.2456
    172  OD2       17.1880    8.2360    4.8380 O.co2 443  ASP443     -0.2456
    173  N         14.3700    5.4420    6.2720 N.3   445  VAL445     -0.1231
    174  CA        15.2970    4.4170    5.8150 C.3   445  VAL445      0.1692
    175  C         16.3440    4.1200    6.8800 C.2   445  VAL445      0.2591
    176  O         16.5790    2.9600    7.2270 O.2   445  VAL445     -0.2718
    177  CB        16.0000    4.8540    4.5140 C.3   445  VAL445      0.0266
    178  CG1       17.1180    3.8840    4.1570 C.3   445  VAL445      0.0020
    179  CG2       14.9790    4.9190    3.3860 C.3   445  VAL445      0.0020
    180  N         16.9630    5.1710    7.4060 N.am  446  ARG446     -0.1980
    181  CA        17.9870    4.9930    8.4200 C.3   446  ARG446      0.1597
    182  C         17.4190    4.8030    9.8230 C.2   446  ARG446      0.2287
    183  O         18.0800    4.2270   10.6870 O.2   446  ARG446     -0.2864
    184  CB        18.9890    6.1480    8.3450 C.3   446  ARG446      0.0334
    185  CG        19.9820    5.9390    7.1900 C.3   446  ARG446      0.0492
    186  CD        20.7560    7.1930    6.8320 C.3   446  ARG446      0.2205
    187  NE        19.8860    8.1750    6.1970 N.pl3 446  ARG446     -0.0865
    188  CZ        20.2430    9.4240    5.9240 C.cat 446  ARG446      0.5346
    189  NH1       21.4630    9.8500    6.2270 N.pl3 446  ARG446      0.1354
    190  NH2       19.3690   10.2510    5.3680 N.pl3 446  ARG446      0.1354
    191  N         16.9000    1.1180    9.8280 N.3   449  GLN449     -0.1245
    192  CA        18.1750    0.4140    9.9070 C.3   449  GLN449      0.1566
    193  C         18.7160    0.5300   11.3340 C.2   449  GLN449      0.2260
    194  O         19.3070   -0.4150   11.8630 O.2   449  GLN449     -0.2867
    195  CB        19.1640    1.0030    8.9000 C.3   449  GLN449      0.0367
    196  CG        18.8790    0.5660    7.4730 C.3   449  GLN449      0.0905
    197  CD        19.6790    1.3420    6.4450 C.2   449  GLN449      0.2608
    198  OE1       20.7280    1.9060    6.7540 O.2   449  GLN449     -0.2717
    199  NE2       19.1940    1.3600    5.2100 N.am  449  GLN449     -0.0878
@<TRIPOS>BOND
     1    51    52    1
     2    49    48    2
     3    45    44    2
     4    53    52    1
     5    53    54    2
     6    52    55    1
     7    55    56    1
     8    48    47    1
     9    48    50   am
    10    44    43    1
    11    47    46    1
    12    56    57    1
    13    46    43    1
    14    43    42    1
    15    57    58    1
    16   125   124    1
    17    69    68    1
    18   126   124    1
    19   179   177    1
    20    58    59    2
    21   149   148   ar
    22   149   147   ar
    23   148   146   ar
    24   124   123    1
    25   123   120    1
    26   178   177    1
    27   108   109    1
    28    68    67    1
    29    59    60    1
    30    59    61    1
    31   177   174    1
    32   147   145   ar
    33   146   144   ar
    34   172   170   ar
    35   120   119    1
    36   120   121    1
    37   109   112    1
    38   109   110    1
    39   171   170   ar
    40   199   197   am
    41   190   188    1
    42   170   169    1
    43   112   113    1
    44    67    66    1
    45   174   173    1
    46   174   175    1
    47   145   144   ar
    48   188   187    2
    49   188   189    1
    50   144   143    1
    51   110   111    2
    52   187   186    1
    53   121   122    2
    54   121   127   am
    55   113   114    1
    56   197   198    2
    57   197   196    1
    58   169   166    1
    59   186   185    1
    60   175   176    2
    61   175   180   am
    62    66    63    1
    63   114   115    1
    64   127   128    1
    65   185   184    1
    66   143   140    1
    67    65    64    2
    68   180   181    1
    69   166   167    1
    70   166   165    1
    71   196   195    1
    72    63    64    1
    73    63    62    1
    74   107   105   ar
    75    75    74    1
    76   167   168    2
    77   103   102    2
    78    64    70   am
    79   139   140    1
    80   115   116    2
    81   104   105    1
    82   104   101    1
    83   140   141    1
    84   184   181    1
    85   181   182    1
    86   128   129    1
    87   128   131    1
    88   105   106   ar
    89   165   163   am
    90   102   101    1
    91   195   192    1
    92    74    76    1
    93    74    71    1
    94    70    71    1
    95   129   130    2
    96   101   100    1
    97   131   132    1
    98   116   117    1
    99   116   118    1
   100    40    39    1
   101   164   163    2
   102    98    97    1
   103    71    72    1
   104   163   162    1
   105   141   142    2
   106   141   150   am
   107    99    97    1
   108   182   183    2
   109   191   192    1
   110    39    41    1
   111    39    36    1
   112   192   193    1
   113    37    38    2
   114    37    36    1
   115   150   151    1
   116    97    96    1
   117    36    35    1
   118   132   133   ar
   119   132   134   ar
   120   162   161    1
   121    72    73    2
   122   133   135   ar
   123    96    93    1
   124   193   194    2
   125   151   154    1
   126   151   152    1
   127    90    89    1
   128   134   136   ar
   129    82    81    1
   130    35    29   am
   131    93    94    1
   132    93    92    1
   133   154   155    1
   134   152   153    2
   135    89    91    1
   136    89    88    1
   137   135   137   ar
   138    94    95    2
   139   136   137   ar
   140   157   155   ar
   141   157   159   ar
   142    29    30    2
   143    29    28    1
   144    81    83    1
   145    81    78    1
   146    92    86   am
   147    78    77    1
   148    78    79    1
   149   155   156   ar
   150    87    86    2
   151   137   138    1
   152    86    85    1
   153    26    23    1
   154    88    85    1
   155   159   160   ar
   156    27    28    1
   157    27    24   am
   158    28    31    1
   159    79    80    2
   160    23    24    1
   161    23    22    1
   162   156   158   ar
   163    85    84    1
   164    24    25    2
   165    31    32    1
   166   160   158   ar
   167    15    14    2
   168     8     7    1
   169     8     9    2
   170     7     6    1
   171    22    14   am
   172    11     9    1
   173    14    13    1
   174    32    33    1
   175    32    34    1
   176     9    10    1
   177     6     5    1
   178     5     2    1
   179    20    21   ar
   180    20    18   ar
   181     1     2    1
   182    21    19   ar
   183    18    17   ar
   184    13    12    1
   185    13    16    1
   186    19    17   ar
   187     2     3    1
   188    17    16    1
   189     3     4    2
