@<TRIPOS>MOLECULE
tmp/2yyjA01.pdb
 127 126 0 0 0
SMALL
GASTEIGER

@<TRIPOS>ATOM
      1  N          7.0880   21.7760   17.1450 N.3    99  ARG99      -0.1245
      2  CA         8.2610   22.0820   17.9490 C.3    99  ARG99       0.1563
      3  C          8.0340   22.9870   19.1510 C.2    99  ARG99       0.2260
      4  O          8.8070   23.9200   19.3910 O.2    99  ARG99      -0.2867
      5  CB         9.3690   22.6680   17.0660 C.3    99  ARG99       0.0307
      6  CG        10.3940   21.6360   16.6030 C.3    99  ARG99       0.0489
      7  CD         9.8110   20.6360   15.6180 C.3    99  ARG99       0.2205
      8  NE        10.6780   19.4690   15.4610 N.pl3  99  ARG99      -0.0865
      9  CZ        10.7670   18.4820   16.3480 C.cat  99  ARG99       0.5346
     10  NH1       10.0360   18.5140   17.4550 N.pl3  99  ARG99       0.1354
     11  NH2       11.5960   17.4700   16.1390 N.pl3  99  ARG99       0.1354
     12  N          9.3100   19.7680   24.0530 N.3   103  TYR103     -0.1241
     13  CA         9.9910   18.6500   23.4040 C.3   103  TYR103      0.1605
     14  C         11.4820   18.7510   23.7260 C.2   103  TYR103      0.2264
     15  O         12.1140   17.7680   24.1200 O.2   103  TYR103     -0.2867
     16  CB         9.7680   18.7270   21.8880 C.3   103  TYR103      0.0534
     17  CG        10.6090   17.7910   21.0380 C.ar  103  TYR103     -0.0201
     18  CD1       10.2660   16.4440   20.8840 C.ar  103  TYR103     -0.0009
     19  CD2       11.7100   18.2730   20.3280 C.ar  103  TYR103     -0.0009
     20  CE1       10.9920   15.6060   20.0320 C.ar  103  TYR103      0.0417
     21  CE2       12.4420   17.4430   19.4770 C.ar  103  TYR103      0.0417
     22  CZ        12.0740   16.1150   19.3290 C.ar  103  TYR103      0.1957
     23  OH        12.7640   15.3140   18.4400 O.3   103  TYR103     -0.2866
     24  N         16.0440   24.1460   17.8550 N.3   141  HIS141     -0.1226
     25  CA        17.2140   23.2900   17.6940 C.3   141  HIS141      0.1752
     26  C         17.4660   22.8980   16.2480 C.2   141  HIS141      0.2596
     27  O         16.5730   22.9750   15.4080 O.2   141  HIS141     -0.2718
     28  CB        17.0620   22.0200   18.5390 C.3   141  HIS141      0.0759
     29  CG        16.0970   21.0220   17.9700 C.ar  141  HIS141      0.0818
     30  ND1       14.8130   21.3550   17.5940 N.ar  141  HIS141     -0.2268
     31  CD2       16.2300   19.6970   17.7230 C.ar  141  HIS141      0.1154
     32  CE1       14.1980   20.2780   17.1370 C.ar  141  HIS141      0.1986
     33  NE2       15.0350   19.2590   17.2040 N.ar  141  HIS141     -0.2212
     34  N         18.6980   22.4810   15.9760 N.am  142  ALA142     -0.1966
     35  CA        19.1100   22.0580   14.6400 C.3   142  ALA142      0.1728
     36  C         20.1660   20.9740   14.8150 C.2   142  ALA142      0.2616
     37  O         21.2250   21.2210   15.4010 O.2   142  ALA142     -0.2715
     38  CB        19.6800   23.2390   13.8680 C.3   142  ALA142      0.0334
     39  N         19.8830   19.7800   14.2960 N.am  143  LEU143     -0.1963
     40  CA        20.7880   18.6410   14.4410 C.3   143  LEU143      0.1728
     41  C         21.3970   18.1070   13.1530 C.2   143  LEU143      0.2616
     42  O         22.2900   17.2570   13.2000 O.2   143  LEU143     -0.2715
     43  CB        20.0470   17.4740   15.1020 C.3   143  LEU143      0.0311
     44  CG        19.1590   17.7390   16.3180 C.3   143  LEU143      0.0022
     45  CD1       18.6180   16.4100   16.8410 C.3   143  LEU143      0.0001
     46  CD2       19.9540   18.4430   17.4000 C.3   143  LEU143      0.0001
     47  N         20.9230   18.5870   12.0090 N.am  144  THR144     -0.1951
     48  CA        21.4100   18.0670   10.7360 C.3   144  THR144      0.1897
     49  C         22.3450   18.9730    9.9430 C.2   144  THR144      0.2313
     50  O         22.2700   20.2000   10.0200 O.2   144  THR144     -0.2863
     51  CB        20.2190   17.6570    9.8370 C.3   144  THR144      0.1794
     52  OG1       19.5310   18.8270    9.3790 O.3   144  THR144     -0.2208
     53  CG2       19.2380   16.7970   10.6270 C.3   144  THR144      0.0378
     54  N         23.1800   14.4030   16.1920 N.3   196  SER196     -0.1202
     55  CA        22.0410   13.7480   15.5640 C.3   196  SER196      0.2020
     56  C         21.5440   12.6430   16.4950 C.2   196  SER196      0.2619
     57  O         22.3020   12.1380   17.3300 O.2   196  SER196     -0.2717
     58  CB        22.4600   13.1350   14.2280 C.3   196  SER196      0.2103
     59  OG        21.4830   12.2220   13.7590 O.3   196  SER196     -0.2182
     60  N         20.2760   12.2690   16.3490 N.am  197  THR197     -0.1938
     61  CA        19.7010   11.2100   17.1680 C.3   197  THR197      0.2028
     62  C         19.9330    9.8430   16.5300 C.2   197  THR197      0.2642
     63  O         19.6000    8.8250   17.1290 O.2   197  THR197     -0.2714
     64  CB        18.1800   11.3830   17.3590 C.3   197  THR197      0.1808
     65  OG1       17.5260   11.2710   16.0900 O.3   197  THR197     -0.2208
     66  CG2       17.8640   12.7390   17.9760 C.3   197  THR197      0.0379
     67  N         20.4860    9.8130   15.3150 N.am  198  LEU198     -0.1963
     68  CA        20.7350    8.5290   14.6610 C.3   198  LEU198      0.1728
     69  C         21.9450    8.4680   13.7280 C.2   198  LEU198      0.2616
     70  O         22.4570    7.3800   13.4610 O.2   198  LEU198     -0.2715
     71  CB        19.4900    8.0650   13.8850 C.3   198  LEU198      0.0311
     72  CG        19.1860    8.7110   12.5280 C.3   198  LEU198      0.0022
     73  CD1       18.1830    7.8580   11.7530 C.3   198  LEU198      0.0001
     74  CD2       18.6400   10.1030   12.7360 C.3   198  LEU198      0.0001
     75  N         22.4010    9.6130   13.2240 N.am  199  LEU199     -0.1977
     76  CA        23.5500    9.6270   12.3160 C.3   199  LEU199      0.1596
     77  C         24.8690    9.7880   13.0670 C.2   199  LEU199      0.2287
     78  O         24.9260   10.4650   14.0890 O.2   199  LEU199     -0.2864
     79  CB        23.4070   10.7620   11.2970 C.3   199  LEU199      0.0297
     80  CG        22.1150   10.7810   10.4700 C.3   199  LEU199      0.0022
     81  CD1       22.1840   11.9180    9.4650 C.3   199  LEU199      0.0001
     82  CD2       21.9210    9.4480    9.7480 C.3   199  LEU199      0.0001
     83  N         12.0910   12.6420   24.7760 N.3   283  MET283     -0.1245
     84  CA        11.6610   13.4800   23.6670 C.3   283  MET283      0.1570
     85  C         10.6210   12.7140   22.8410 C.2   283  MET283      0.2261
     86  O          9.6670   13.3020   22.3350 O.2   283  MET283     -0.2867
     87  CB        12.8650   13.9070   22.8080 C.3   283  MET283      0.0387
     88  CG        13.5010   12.8130   21.9690 C.3   283  MET283      0.0595
     89  SD        15.2400   13.1850   21.5760 S.3   283  MET283     -0.1393
     90  CE        15.0770   14.5080   20.3910 C.3   283  MET283      0.0692
     91  N          9.5090   13.0740    8.0460 N.3   439  PHE439     -0.1227
     92  CA        10.9330   13.2480    8.3410 C.3   439  PHE439      0.1736
     93  C         11.4470   13.8790    9.6350 C.2   439  PHE439      0.2595
     94  O         12.6270   13.7420    9.9410 O.2   439  PHE439     -0.2718
     95  CB        11.5550   14.0660    7.2040 C.3   439  PHE439      0.0547
     96  CG        11.7470   13.3060    5.9320 C.ar  439  PHE439     -0.0202
     97  CD1       12.7130   12.3100    5.8490 C.ar  439  PHE439     -0.0042
     98  CD2       10.9900   13.6070    4.8020 C.ar  439  PHE439     -0.0042
     99  CE1       12.9310   11.6250    4.6600 C.ar  439  PHE439     -0.0003
    100  CE2       11.1990   12.9260    3.6020 C.ar  439  PHE439     -0.0003
    101  CZ        12.1740   11.9330    3.5310 C.ar  439  PHE439     -0.0000
    102  N         10.6090   14.5730   10.3920 N.am  440  PHE440     -0.1962
    103  CA        11.1440   15.2630   11.5640 C.3   440  PHE440      0.1771
    104  C         12.0820   14.4750   12.4890 C.2   440  PHE440      0.2620
    105  O         13.0940   15.0220   12.9310 O.2   440  PHE440     -0.2715
    106  CB        10.0080   15.9220   12.3650 C.3   440  PHE440      0.0574
    107  CG         9.3980   15.0380   13.4050 C.ar  440  PHE440     -0.0200
    108  CD1       10.0030   14.8870   14.6500 C.ar  440  PHE440     -0.0042
    109  CD2        8.2280   14.3390   13.1380 C.ar  440  PHE440     -0.0042
    110  CE1        9.4500   14.0500   15.6120 C.ar  440  PHE440     -0.0003
    111  CE2        7.6680   13.5010   14.0930 C.ar  440  PHE440     -0.0003
    112  CZ         8.2810   13.3560   15.3330 C.ar  440  PHE440     -0.0000
    113  N         11.7770   13.2060   12.7650 N.am  441  PHE441     -0.1960
    114  CA        12.6240   12.4020   13.6570 C.3   441  PHE441      0.1771
    115  C         13.7730   11.7040   12.9240 C.2   441  PHE441      0.2620
    116  O         14.5760   10.9930   13.5370 O.2   441  PHE441     -0.2715
    117  CB        11.7700   11.3610   14.3920 C.3   441  PHE441      0.0574
    118  CG        11.9920   11.3260   15.8860 C.ar  441  PHE441     -0.0200
    119  CD1       10.9380   11.0200   16.7430 C.ar  441  PHE441     -0.0042
    120  CD2       13.2440   11.5910   16.4360 C.ar  441  PHE441     -0.0042
    121  CE1       11.1240   10.9790   18.1230 C.ar  441  PHE441     -0.0003
    122  CE2       13.4420   11.5510   17.8160 C.ar  441  PHE441     -0.0003
    123  CZ        12.3810   11.2450   18.6610 C.ar  441  PHE441     -0.0000
    124  N         13.8520   11.9170   11.6160 N.am  442  GLY442     -0.1954
    125  CA        14.9100   11.3060   10.8340 C.3   442  GLY442      0.1869
    126  C         14.3950   10.6310    9.5800 C.2   442  GLY442      0.2309
    127  O         13.1900   10.4800    9.3900 O.2   442  GLY442     -0.2863
@<TRIPOS>BOND
     1   101   100   ar
     2   101    99   ar
     3   100    98   ar
     4    99    97   ar
     5    98    96   ar
     6    97    96   ar
     7    96    95    1
     8    95    92    1
     9    91    92    1
    10    92    93    1
    11    52    51    1
    12   127   126    2
    13    81    80    1
    14   126   125    1
    15    93    94    2
    16    93   102   am
    17    82    80    1
    18    51    53    1
    19    51    48    1
    20    49    50    2
    21    49    48    1
    22   102   103    1
    23    80    79    1
    24    48    47    1
    25   125   124    1
    26    79    76    1
    27   103   106    1
    28   103   104    1
    29   124   115   am
    30    73    72    1
    31    47    41   am
    32    76    77    1
    33    76    75    1
    34   106   107    1
    35   104   113   am
    36   104   105    2
    37    72    74    1
    38    72    71    1
    39   113   114    1
    40   115   116    2
    41   115   114    1
    42    77    78    2
    43   109   107   ar
    44   109   111   ar
    45    41    42    2
    46    41    40    1
    47    75    69   am
    48   107   108   ar
    49    70    69    2
    50   114   117    1
    51    69    68    1
    52    59    58    1
    53    38    35    1
    54    71    68    1
    55   111   112   ar
    56    58    55    1
    57    39    40    1
    58    39    36   am
    59   117   118    1
    60    40    43    1
    61    35    36    1
    62    35    34    1
    63   108   110   ar
    64    68    67    1
    65    36    37    2
    66    43    44    1
    67    67    62   am
    68   112   110   ar
    69    27    26    2
    70     8     7    1
    71     8     9    2
    72    55    54    1
    73    55    56    1
    74     7     6    1
    75   118   120   ar
    76   118   119   ar
    77    34    26   am
    78    65    64    1
    79    11     9    1
    80    26    25    1
    81    44    45    1
    82    44    46    1
    83     9    10    1
    84    60    56   am
    85    60    61    1
    86   120   122   ar
    87    56    57    2
    88    62    63    2
    89    62    61    1
    90     6     5    1
    91   119   121   ar
    92     5     2    1
    93    32    33   ar
    94    32    30   ar
    95     1     2    1
    96    61    64    1
    97    33    31   ar
    98    64    66    1
    99    30    29   ar
   100    25    24    1
   101    25    28    1
   102    31    29   ar
   103   122   123   ar
   104     2     3    1
   105    29    28    1
   106   121   123   ar
   107    23    22    1
   108     3     4    2
   109    22    21   ar
   110    22    20   ar
   111    21    19   ar
   112    20    18   ar
   113    19    17   ar
   114    90    89    1
   115    18    17   ar
   116    17    16    1
   117    89    88    1
   118    16    13    1
   119    88    87    1
   120    86    85    2
   121    87    84    1
   122    85    84    1
   123    13    14    1
   124    13    12    1
   125    84    83    1
   126    14    15    2
