@<TRIPOS>MOLECULE
tmp/2yyuB00.pdb
 115 106 0 0 0
SMALL
GASTEIGER

@<TRIPOS>ATOM
      1  N        -24.3250   39.7240   32.9190 N.3     7  ALA7       -0.1245
      2  CA       -22.9990   39.4160   33.4270 C.3     7  ALA7        0.1562
      3  C        -21.9540   40.4520   33.0190 C.2     7  ALA7        0.2260
      4  O        -21.6300   40.6000   31.8400 O.2     7  ALA7       -0.2867
      5  CB       -22.5730   38.0220   32.9510 C.3     7  ALA7        0.0290
      6  N        -18.7600   40.7500   32.6910 N.3     9  ASP9       -0.1239
      7  CA       -17.4890   40.0450   32.5910 C.3     9  ASP9        0.1674
      8  C        -16.3840   40.9440   32.0420 C.2     9  ASP9        0.2266
      9  O        -15.8740   40.7280   30.9440 O.2     9  ASP9       -0.2867
     10  CB       -17.6340   38.7940   31.7160 C.3     9  ASP9        0.1410
     11  CG       -18.5290   37.7410   32.3490 C.2     9  ASP9        0.3668
     12  OD1      -18.5140   37.6200   33.5930 O.co2   9  ASP9       -0.2456
     13  OD2      -19.2360   37.0290   31.6060 O.co2   9  ASP9       -0.2456
     14  N        -24.6200   41.1190   37.1350 N.3    31  LYS31      -0.1245
     15  CA       -23.8250   40.1160   37.8280 C.3    31  LYS31       0.1561
     16  C        -22.3450   40.4930   37.8490 C.2    31  LYS31       0.2260
     17  O        -21.7300   40.7190   36.8070 O.2    31  LYS31      -0.2867
     18  CB       -23.9870   38.7480   37.1640 C.3    31  LYS31       0.0271
     19  CG       -23.3220   37.6090   37.9350 C.3    31  LYS31       0.0035
     20  CD       -23.6460   36.2480   37.3370 C.3    31  LYS31       0.0206
     21  CE       -22.8720   36.0030   36.0560 C.3    31  LYS31       0.1093
     22  NZ       -21.4050   35.9760   36.3180 N.3    31  LYS31      -0.1314
     23  N        -21.4440   37.1820   42.1310 N.3    58  ASP58      -0.1239
     24  CA       -21.1530   35.8020   41.7820 C.3    58  ASP58       0.1674
     25  C        -19.7260   35.4490   42.1890 C.2    58  ASP58       0.2266
     26  O        -18.8350   35.3910   41.3430 O.2    58  ASP58      -0.2867
     27  CB       -21.3330   35.6350   40.2700 C.3    58  ASP58       0.1410
     28  CG       -21.1640   34.2060   39.8120 C.2    58  ASP58       0.3668
     29  OD1      -20.9280   33.3240   40.6620 O.co2  58  ASP58      -0.2456
     30  OD2      -21.2730   33.9690   38.5910 O.co2  58  ASP58      -0.2456
     31  N        -19.1820   32.7120   44.3450 N.3    60  LYS60      -0.1245
     32  CA       -19.2330   31.3000   44.6980 C.3    60  LYS60       0.1561
     33  C        -18.4230   30.9610   45.9450 C.2    60  LYS60       0.2260
     34  O        -17.4740   30.1830   45.8830 O.2    60  LYS60      -0.2867
     35  CB       -18.7430   30.4630   43.5080 C.3    60  LYS60       0.0271
     36  CG       -19.5620   30.6660   42.2220 C.3    60  LYS60       0.0035
     37  CD       -19.0950   29.7390   41.0970 C.3    60  LYS60       0.0206
     38  CE       -19.9470   29.9000   39.8370 C.3    60  LYS60       0.1093
     39  NZ       -19.8960   31.2840   39.2750 N.3    60  LYS60      -0.1314
     40  N        -21.2660   24.2600   35.2250 N.3   121  THR121     -0.1203
     41  CA       -21.7040   23.9150   33.8740 C.3   121  THR121      0.1994
     42  C        -20.5710   23.2760   33.0760 C.2   121  THR121      0.2618
     43  O        -20.8120   22.4870   32.1630 O.2   121  THR121     -0.2717
     44  CB       -22.2070   25.1640   33.1070 C.3   121  THR121      0.1784
     45  OG1      -21.1990   26.1790   33.1320 O.3   121  THR121     -0.2211
     46  CG2      -23.4830   25.7040   33.7370 C.3   121  THR121      0.0376
     47  N        -19.3360   23.6140   33.4350 N.am  122  SER122     -0.1951
     48  CA       -18.1640   23.0790   32.7520 C.3   122  SER122      0.1924
     49  C        -17.7960   21.6740   33.2280 C.2   122  SER122      0.2314
     50  O        -16.8470   21.0750   32.7280 O.2   122  SER122     -0.2863
     51  CB       -16.9690   24.0100   32.9640 C.3   122  SER122      0.2116
     52  OG       -16.6080   24.0730   34.3350 O.3   122  SER122     -0.2180
     53  N        -27.5300   30.1930   33.4060 N.3   180  PRO180     -0.2102
     54  CA       -26.5830   30.8570   32.5070 C.3   180  PRO180      0.1504
     55  C        -26.5950   30.1000   31.1780 C.2   180  PRO180      0.2576
     56  O        -27.4100   29.1960   30.9850 O.2   180  PRO180     -0.2718
     57  CB       -25.2640   30.7010   33.2420 C.3   180  PRO180      0.0282
     58  CG       -25.3890   29.3040   33.7880 C.3   180  PRO180      0.0208
     59  CD       -26.8240   29.2630   34.3100 C.3   180  PRO180      0.0893
     60  N        -25.6940   30.4600   30.2720 N.am  181  GLY181     -0.1943
     61  CA       -25.6430   29.7860   28.9890 C.3   181  GLY181      0.2014
     62  C        -26.8170   30.1490   28.1020 C.2   181  GLY181      0.2639
     63  O        -27.5340   29.2740   27.6140 O.2   181  GLY181     -0.2714
     64  N        -27.0180   31.4470   27.8960 N.am  182  ILE182     -0.1963
     65  CA       -28.1080   31.9350   27.0600 C.3   182  ILE182      0.1727
     66  C        -27.5490   32.5310   25.7750 C.2   182  ILE182      0.2616
     67  O        -26.5410   33.2340   25.7940 O.2   182  ILE182     -0.2715
     68  CB       -28.9380   33.0190   27.7960 C.3   182  ILE182      0.0290
     69  CG1      -29.5480   32.4370   29.0750 C.3   182  ILE182      0.0022
     70  CG2      -30.0260   33.5570   26.8830 C.3   182  ILE182      0.0023
     71  CD1      -30.4130   31.2070   28.8520 C.3   182  ILE182      0.0001
     72  N        -28.2090   32.2400   24.6590 N.am  183  ARG183     -0.1977
     73  CA       -27.7910   32.7470   23.3520 C.3   183  ARG183      0.1597
     74  C        -29.0080   32.9060   22.4560 C.2   183  ARG183      0.2287
     75  O        -29.9480   32.1150   22.5340 O.2   183  ARG183     -0.2864
     76  CB       -26.8270   31.7670   22.6710 C.3   183  ARG183      0.0334
     77  CG       -25.4510   31.6570   23.2920 C.3   183  ARG183      0.0492
     78  CD       -24.6410   32.9140   23.0460 C.3   183  ARG183      0.2205
     79  NE       -23.2600   32.7830   23.5040 N.pl3 183  ARG183     -0.0865
     80  CZ       -22.9090   32.5240   24.7590 C.cat 183  ARG183      0.5346
     81  NH1      -23.8400   32.3630   25.6900 N.pl3 183  ARG183      0.1354
     82  NH2      -21.6250   32.4420   25.0860 N.pl3 183  ARG183      0.1354
     83  N        -25.5340   22.8340   25.1200 N.3   190  ARG190     -0.1245
     84  CA       -24.9020   23.6540   26.1460 C.3   190  ARG190      0.1563
     85  C        -25.4260   25.0900   26.1300 C.2   190  ARG190      0.2260
     86  O        -24.9330   25.9430   26.8680 O.2   190  ARG190     -0.2867
     87  CB       -23.3860   23.6690   25.9490 C.3   190  ARG190      0.0307
     88  CG       -22.9530   24.1230   24.5670 C.3   190  ARG190      0.0489
     89  CD       -21.4900   24.5290   24.5440 C.3   190  ARG190      0.2205
     90  NE       -21.0610   24.8990   23.1990 N.pl3 190  ARG190     -0.0865
     91  CZ       -19.8630   25.3930   22.9000 C.cat 190  ARG190      0.5346
     92  NH1      -18.9610   25.5850   23.8540 N.pl3 190  ARG190      0.1354
     93  NH2      -19.5620   25.6900   21.6420 N.pl3 190  ARG190      0.1354
     94  N        -29.0110   34.2840   32.9170 N.3   206  VAL206     -0.1245
     95  CA       -27.8100   35.1040   32.8770 C.3   206  VAL206      0.1561
     96  C        -27.3580   35.3010   31.4450 C.2   206  VAL206      0.2260
     97  O        -27.0070   34.3400   30.7600 O.2   206  VAL206     -0.2867
     98  CB       -26.6550   34.4490   33.6630 C.3   206  VAL206      0.0252
     99  CG1      -25.4680   35.4120   33.7490 C.3   206  VAL206      0.0019
    100  CG2      -27.1340   34.0450   35.0440 C.3   206  VAL206      0.0019
    101  N        -24.6960   37.2470   28.8470 N.3   208  GLY208     -0.1210
    102  CA       -23.4100   37.9130   28.8020 C.3   208  GLY208      0.1956
    103  C        -23.1030   38.5170   27.4450 C.2   208  GLY208      0.2611
    104  O        -23.7450   39.4800   27.0300 O.2   208  GLY208     -0.2717
    105  N        -22.1210   37.9430   26.7560 N.am  209  ARG209     -0.1979
    106  CA       -21.6940   38.4240   25.4460 C.3   209  ARG209      0.1597
    107  C        -22.8270   38.6190   24.4370 C.2   209  ARG209      0.2287
    108  O        -22.7000   39.4180   23.5120 O.2   209  ARG209     -0.2864
    109  CB       -20.6400   37.4770   24.8600 C.3   209  ARG209      0.0334
    110  CG       -19.3340   37.4390   25.6410 C.3   209  ARG209      0.0492
    111  CD       -18.4010   36.3570   25.1070 C.3   209  ARG209      0.2205
    112  NE       -17.8370   36.6920   23.8000 N.pl3 209  ARG209     -0.0865
    113  CZ       -16.8410   37.5530   23.6060 C.cat 209  ARG209      0.5346
    114  NH1      -16.2830   38.1760   24.6350 N.pl3 209  ARG209      0.1354
    115  NH2      -16.4020   37.7930   22.3780 N.pl3 209  ARG209      0.1354
@<TRIPOS>BOND
     1    93    91    1
     2   115   113    1
     3    74    75    2
     4    74    73    1
     5    76    77    1
     6    76    73    1
     7    91    90    2
     8    91    92    1
     9    78    77    1
    10    78    79    1
    11    90    89    1
    12    73    72    1
    13    79    80    2
    14   108   107    2
    15   113   112    2
    16   113   114    1
    17   112   111    1
    18   107   106    1
    19    89    88    1
    20    88    87    1
    21    72    66   am
    22    80    82    1
    23    80    81    1
    24   109   106    1
    25   109   110    1
    26   111   110    1
    27    83    84    1
    28   106   105    1
    29    66    67    2
    30    66    65    1
    31    87    84    1
    32    85    84    1
    33    85    86    2
    34   105   103   am
    35    70    68    1
    36   104   103    2
    37    65    68    1
    38    65    64    1
    39   103   102    1
    40    63    62    2
    41    68    69    1
    42    64    62   am
    43    62    61    1
    44   102   101    1
    45    71    69    1
    46    61    60    1
    47    60    55   am
    48    97    96    2
    49     9     8    2
    50    56    55    2
    51    55    54    1
    52    96    95    1
    53    13    11   ar
    54    10    11    1
    55    10     7    1
    56     4     3    2
    57     8     7    1
    58    43    42    2
    59    11    12   ar
    60    54    57    1
    61    54    53    1
    62     7     6    1
    63    50    49    2
    64    48    51    1
    65    48    49    1
    66    48    47    1
    67    95    94    1
    68    95    98    1
    69     1     2    1
    70     5     2    1
    71    51    52    1
    72     3     2    1
    73    42    47   am
    74    42    41    1
    75    44    45    1
    76    44    46    1
    77    44    41    1
    78    57    58    1
    79    53    59    1
    80    98    99    1
    81    98   100    1
    82    58    59    1
    83    41    40    1
    84    21    22    1
    85    21    20    1
    86    17    16    2
    87    14    15    1
    88    18    15    1
    89    18    19    1
    90    20    19    1
    91    15    16    1
    92    30    28   ar
    93    39    38    1
    94    28    27    1
    95    28    29   ar
    96    38    37    1
    97    27    24    1
    98    37    36    1
    99    26    25    2
   100    24    23    1
   101    24    25    1
   102    36    35    1
   103    35    32    1
   104    31    32    1
   105    32    33    1
   106    34    33    2
