@<TRIPOS>MOLECULE
tmp/2yyuA00.pdb
 138 129 0 0 0
SMALL
GASTEIGER

@<TRIPOS>ATOM
      1  N         -2.3400   34.4010   59.5790 N.3     6  ALA6       -0.1245
      2  CA        -3.7010   34.6570   59.1190 C.3     6  ALA6        0.1562
      3  C         -4.1960   36.0000   59.6410 C.2     6  ALA6        0.2260
      4  O         -4.4250   36.1630   60.8420 O.2     6  ALA6       -0.2867
      5  CB        -4.6330   33.5390   59.5910 C.3     6  ALA6        0.0290
      6  N         -6.9370   37.5660   60.0760 N.3     8  ASP8       -0.1239
      7  CA        -8.3890   37.4870   60.1580 C.3     8  ASP8        0.1674
      8  C         -8.9590   38.6380   60.9650 C.2     8  ASP8        0.2266
      9  O         -9.4300   38.4650   62.0860 O.2     8  ASP8       -0.2867
     10  CB        -8.8200   36.1440   60.7570 C.3     8  ASP8        0.1410
     11  CG        -8.4190   34.9620   59.8820 C.2     8  ASP8        0.3668
     12  OD1       -8.4960   35.0870   58.6430 O.co2   8  ASP8       -0.2456
     13  OD2       -8.0410   33.9050   60.4290 O.co2   8  ASP8       -0.2456
     14  N         -1.5860   36.0370   55.4310 N.3    30  LYS30      -0.1245
     15  CA        -2.6900   35.5010   54.6550 C.3    30  LYS30       0.1561
     16  C         -3.9070   36.4070   54.7280 C.2    30  LYS30       0.2260
     17  O         -4.3770   36.7560   55.8090 O.2    30  LYS30      -0.2867
     18  CB        -3.0660   34.0980   55.1520 C.3    30  LYS30       0.0271
     19  CG        -4.0990   33.3900   54.2800 C.3    30  LYS30       0.0035
     20  CD        -4.2940   31.9260   54.6760 C.3    30  LYS30       0.0206
     21  CE        -5.1230   31.7850   55.9350 C.3    30  LYS30       0.1093
     22  NZ        -6.4880   32.3770   55.7820 N.3    30  LYS30      -0.1314
     23  N         -5.8180   34.1410   50.0820 N.3    57  ASP57      -0.1239
     24  CA        -6.5850   32.9150   50.2700 C.3    57  ASP57       0.1674
     25  C         -8.0560   33.1260   49.9020 C.2    57  ASP57       0.2266
     26  O         -8.8840   33.4380   50.7590 O.2    57  ASP57      -0.2867
     27  CB        -6.4410   32.4690   51.7300 C.3    57  ASP57       0.1410
     28  CG        -7.2330   31.2180   52.0530 C.2    57  ASP57       0.3668
     29  OD1       -7.6000   30.4740   51.1210 O.co2  57  ASP57      -0.2456
     30  OD2       -7.4670   30.9720   53.2570 O.co2  57  ASP57      -0.2456
     31  N         -9.6230   30.7700   47.6020 N.3    59  LYS59      -0.1245
     32  CA       -10.1250   29.4690   47.1630 C.3    59  LYS59       0.1561
     33  C        -11.0450   29.5520   45.9400 C.2    59  LYS59       0.2260
     34  O        -12.2080   29.1460   45.9980 O.2    59  LYS59      -0.2867
     35  CB       -10.8580   28.7900   48.3220 C.3    59  LYS59       0.0271
     36  CG       -10.0000   28.6230   49.5840 C.3    59  LYS59       0.0035
     37  CD       -10.7460   27.8450   50.6570 C.3    59  LYS59       0.0206
     38  CE        -9.9230   27.7210   51.9350 C.3    59  LYS59       0.1093
     39  NZ        -9.6360   29.0610   52.5130 N.3    59  LYS59      -0.1314
     40  N        -11.6670   20.7950   52.4580 N.3   119  LEU119     -0.1231
     41  CA       -11.5620   21.7530   53.5520 C.3   119  LEU119      0.1693
     42  C        -11.2420   21.0270   54.8540 C.2   119  LEU119      0.2593
     43  O        -11.6480   19.8830   55.0510 O.2   119  LEU119     -0.2718
     44  CB       -12.8680   22.5260   53.7060 C.3   119  LEU119      0.0284
     45  CG       -13.2110   23.5160   52.5940 C.3   119  LEU119      0.0019
     46  CD1      -14.5770   24.1250   52.8820 C.3   119  LEU119      0.0001
     47  CD2      -12.1390   24.6070   52.5140 C.3   119  LEU119      0.0001
     48  N        -10.5180   21.6980   55.7410 N.am  120  THR120     -0.1939
     49  CA       -10.1410   21.1140   57.0210 C.3   120  THR120      0.2028
     50  C        -11.3620   20.7960   57.8860 C.2   120  THR120      0.2642
     51  O        -11.2810   19.9770   58.8050 O.2   120  THR120     -0.2714
     52  CB        -9.2260   22.0650   57.8150 C.3   120  THR120      0.1808
     53  OG1       -9.9540   23.2490   58.1500 O.3   120  THR120     -0.2208
     54  CG2       -8.0150   22.4580   56.9870 C.3   120  THR120      0.0379
     55  N        -12.4900   21.4350   57.5820 N.am  121  SER121     -0.1949
     56  CA       -13.7260   21.2300   58.3420 C.3   121  SER121      0.1924
     57  C        -14.6420   20.1530   57.7600 C.2   121  SER121      0.2314
     58  O        -15.7660   19.9620   58.2250 O.2   121  SER121     -0.2863
     59  CB       -14.4990   22.5470   58.4370 C.3   121  SER121      0.2116
     60  OG       -14.7430   23.0860   57.1490 O.3   121  SER121     -0.2180
     61  N         -3.2220   22.6550   50.4240 N.3   157  VAL157     -0.1245
     62  CA        -3.4830   23.0320   51.8030 C.3   157  VAL157      0.1561
     63  C         -3.9090   21.7050   52.4160 C.2   157  VAL157      0.2260
     64  O         -4.7820   21.0290   51.8770 O.2   157  VAL157     -0.2867
     65  CB        -4.6530   24.0290   51.9200 C.3   157  VAL157      0.0252
     66  CG1       -5.0370   24.2020   53.3800 C.3   157  VAL157      0.0019
     67  CG2       -4.2700   25.3680   51.3060 C.3   157  VAL157      0.0019
     68  N         -2.8700   24.5580   58.0260 N.3   179  PRO179     -0.2102
     69  CA        -3.5820   25.4240   58.9660 C.3   179  PRO179      0.1504
     70  C         -3.9120   24.6320   60.2230 C.2   179  PRO179      0.2576
     71  O         -3.4980   23.4800   60.3680 O.2   179  PRO179     -0.2718
     72  CB        -4.8320   25.8090   58.1910 C.3   179  PRO179      0.0282
     73  CG        -5.1420   24.5400   57.4730 C.3   179  PRO179      0.0208
     74  CD        -3.7770   24.1030   56.9580 C.3   179  PRO179      0.0893
     75  N         -4.6720   25.2430   61.1210 N.am  180  GLY180     -0.1943
     76  CA        -5.0240   24.5640   62.3500 C.3   180  GLY180      0.2014
     77  C         -3.7840   24.3810   63.1960 C.2   180  GLY180      0.2639
     78  O         -3.3520   23.2550   63.4380 O.2   180  GLY180     -0.2714
     79  N         -3.2040   25.4980   63.6280 N.am  181  ILE181     -0.1963
     80  CA        -2.0040   25.4910   64.4590 C.3   181  ILE181      0.1727
     81  C         -2.3200   26.0610   65.8430 C.2   181  ILE181      0.2616
     82  O         -2.9350   27.1200   65.9580 O.2   181  ILE181     -0.2715
     83  CB        -0.8700   26.3320   63.8220 C.3   181  ILE181      0.0290
     84  CG1       -0.5090   25.7770   62.4410 C.3   181  ILE181      0.0022
     85  CG2        0.3520   26.3420   64.7310 C.3   181  ILE181      0.0023
     86  CD1        0.1060   24.3880   62.4520 C.3   181  ILE181      0.0001
     87  N         -1.8950   25.3550   66.8880 N.am  182  ARG182     -0.1977
     88  CA        -2.1310   25.7850   68.2640 C.3   182  ARG182      0.1597
     89  C         -1.0160   25.3690   69.2170 C.2   182  ARG182      0.2287
     90  O         -0.4290   24.2950   69.0740 O.2   182  ARG182     -0.2864
     91  CB        -3.4560   25.2140   68.7780 C.3   182  ARG182      0.0334
     92  CG        -4.6910   25.9060   68.2410 C.3   182  ARG182      0.0492
     93  CD        -4.7070   27.3760   68.6350 C.3   182  ARG182      0.2205
     94  NE        -5.9690   28.0250   68.2930 N.pl3 182  ARG182     -0.0865
     95  CZ        -6.4670   28.0940   67.0630 C.cat 182  ARG182      0.5346
     96  NH1       -5.8070   27.5510   66.0460 N.pl3 182  ARG182      0.1354
     97  NH2       -7.6260   28.7040   66.8490 N.pl3 182  ARG182      0.1354
     98  N         -6.8660   22.1530   65.6930 N.3   186  ARG186     -0.1245
     99  CA        -6.7620   20.7040   65.8210 C.3   186  ARG186      0.1563
    100  C         -5.4830   20.3670   66.5750 C.2   186  ARG186      0.2260
    101  O         -4.8700   21.2440   67.1830 O.2   186  ARG186     -0.2867
    102  CB        -6.7220   20.0540   64.4350 C.3   186  ARG186      0.0307
    103  CG        -7.7810   20.5550   63.4550 C.3   186  ARG186      0.0489
    104  CD        -9.2060   20.3200   63.9520 C.3   186  ARG186      0.2205
    105  NE        -9.5580   21.1880   65.0740 N.pl3 186  ARG186     -0.0865
    106  CZ       -10.7540   21.2160   65.6540 C.cat 186  ARG186      0.5346
    107  NH1      -11.7240   20.4220   65.2190 N.pl3 186  ARG186      0.1354
    108  NH2      -10.9820   22.0390   66.6700 N.pl3 186  ARG186      0.1354
    109  N          0.0390   27.7680   58.8990 N.3   202  VAL202     -0.1231
    110  CA        -0.8070   28.9430   59.0060 C.3   202  VAL202      0.1692
    111  C         -1.1860   29.1060   60.4650 C.2   202  VAL202      0.2592
    112  O         -1.8500   28.2450   61.0460 O.2   202  VAL202     -0.2718
    113  CB        -2.0910   28.7970   58.1680 C.3   202  VAL202      0.0266
    114  CG1       -2.9900   30.0030   58.3820 C.3   202  VAL202      0.0020
    115  CG2       -1.7370   28.6590   56.6990 C.3   202  VAL202      0.0020
    116  N         -0.7440   30.2070   61.0600 N.am  203  ILE203     -0.1966
    117  CA        -1.0420   30.4850   62.4530 C.3   203  ILE203      0.1727
    118  C         -2.0860   31.6010   62.4990 C.2   203  ILE203      0.2617
    119  O         -1.9700   32.5910   61.7740 O.2   203  ILE203     -0.2715
    120  CB         0.2440   30.8940   63.2120 C.3   203  ILE203      0.0290
    121  CG1       -0.0840   31.1780   64.6760 C.3   203  ILE203      0.0022
    122  CG2        0.9050   32.0830   62.5360 C.3   203  ILE203      0.0023
    123  CD1       -0.5500   29.9490   65.4350 C.3   203  ILE203      0.0001
    124  N         -3.1080   31.4250   63.3380 N.am  204  GLY204     -0.1940
    125  CA        -4.1740   32.4090   63.4450 C.3   204  GLY204      0.2014
    126  C         -4.3080   33.1550   64.7650 C.2   204  GLY204      0.2638
    127  O         -3.3760   33.8430   65.1890 O.2   204  GLY204     -0.2714
    128  N         -5.4730   33.0330   65.4060 N.am  205  ARG205     -0.1977
    129  CA        -5.7420   33.7150   66.6780 C.3   205  ARG205      0.1597
    130  C         -4.6680   33.4740   67.7250 C.2   205  ARG205      0.2287
    131  O         -4.3730   34.3520   68.5380 O.2   205  ARG205     -0.2864
    132  CB        -7.0920   33.2850   67.2660 C.3   205  ARG205      0.0334
    133  CG        -8.2980   34.0320   66.7250 C.3   205  ARG205      0.0492
    134  CD        -8.7030   33.5140   65.3640 C.3   205  ARG205      0.2205
    135  NE        -9.0670   32.0980   65.4050 N.pl3 205  ARG205     -0.0865
    136  CZ       -10.1130   31.6080   66.0620 C.cat 205  ARG205      0.5346
    137  NH1      -10.9130   32.4180   66.7430 N.pl3 205  ARG205      0.1354
    138  NH2      -10.3620   30.3040   66.0330 N.pl3 205  ARG205      0.1354
@<TRIPOS>BOND
     1    33    34    2
     2    33    32    1
     3    32    31    1
     4    32    35    1
     5    35    36    1
     6    36    37    1
     7    25    24    1
     8    25    26    2
     9    23    24    1
    10    24    27    1
    11    61    62    1
    12    37    38    1
    13    29    28   ar
    14    67    65    1
    15    27    28    1
    16    62    65    1
    17    62    63    1
    18    64    63    2
    19    65    66    1
    20    38    39    1
    21    28    30   ar
    22    40    41    1
    23    47    45    1
    24    45    46    1
    25    45    44    1
    26    41    44    1
    27    41    42    1
    28    19    20    1
    29    19    18    1
    30    15    16    1
    31    15    18    1
    32    15    14    1
    33    20    21    1
    34    16    17    2
    35    42    43    2
    36    42    48   am
    37    48    49    1
    38    22    21    1
    39   115   113    1
    40    74    73    1
    41    74    68    1
    42    54    52    1
    43    49    52    1
    44    49    50    1
    45    60    59    1
    46    73    72    1
    47    55    50   am
    48    55    56    1
    49    57    58    2
    50    57    56    1
    51    52    53    1
    52    50    51    2
    53    68    69    1
    54   113   114    1
    55   113   110    1
    56    72    69    1
    57    56    59    1
    58    12    11   ar
    59   109   110    1
    60    69    70    1
    61   110   111    1
    62     2     1    1
    63     2     5    1
    64     2     3    1
    65     3     4    2
    66    11    13   ar
    67    11    10    1
    68     6     7    1
    69     7    10    1
    70     7     8    1
    71    70    71    2
    72    70    75   am
    73   111   112    2
    74   111   116   am
    75     8     9    2
    76   116   117    1
    77    75    76    1
    78   119   118    2
    79    76    77    1
    80    84    86    1
    81    84    83    1
    82   117   118    1
    83   117   120    1
    84   118   124   am
    85   122   120    1
    86    77    78    2
    87    77    79   am
    88   120   121    1
    89   124   125    1
    90   125   126    1
    91   103   104    1
    92   103   102    1
    93    79    80    1
    94    83    80    1
    95    83    85    1
    96   104   105    1
    97   102    99    1
    98    80    81    1
    99   121   123    1
   100   126   127    2
   101   126   128   am
   102   105   106    2
   103   107   106    1
   104   134   135    1
   105   134   133    1
   106   135   136    2
   107   128   129    1
   108   106   108    1
   109    98    99    1
   110    99   100    1
   111    81    82    2
   112    81    87   am
   113   138   136    1
   114    96    95    1
   115   136   137    1
   116   100   101    2
   117   129   132    1
   118   129   130    1
   119   133   132    1
   120    97    95    1
   121    87    88    1
   122    95    94    2
   123   130   131    2
   124    92    93    1
   125    92    91    1
   126    88    91    1
   127    88    89    1
   128    94    93    1
   129    90    89    2
