@<TRIPOS>MOLECULE
tmp/2yz3B00.pdb
 121 119 0 0 0
SMALL
GASTEIGER

@<TRIPOS>ATOM
      1  N          9.3090   39.8670   81.2020 N.3    31  PHE31      -0.1241
      2  CA         9.1660   39.1860   82.4710 C.3    31  PHE31       0.1605
      3  C          8.5890   40.2630   83.3760 C.2    31  PHE31       0.2264
      4  O          9.1930   41.3140   83.5640 O.2    31  PHE31      -0.2867
      5  CB        10.5330   38.7050   82.9680 C.3    31  PHE31       0.0534
      6  CG        10.4970   38.0660   84.3280 C.ar   31  PHE31      -0.0203
      7  CD1       10.9750   38.7490   85.4420 C.ar   31  PHE31      -0.0042
      8  CD2        9.9950   36.7790   84.4980 C.ar   31  PHE31      -0.0042
      9  CE1       10.9600   38.1610   86.7070 C.ar   31  PHE31      -0.0003
     10  CE2        9.9730   36.1790   85.7620 C.ar   31  PHE31      -0.0003
     11  CZ        10.4580   36.8740   86.8680 C.ar   31  PHE31      -0.0000
     12  N         14.0140   41.7350   79.2210 N.3    36  TYR36      -0.1228
     13  CA        15.3680   41.4130   79.6550 C.3    36  TYR36       0.1721
     14  C         16.1220   40.5590   78.6620 C.2    36  TYR36       0.2437
     15  O         15.5240   39.8240   77.8740 O.2    36  TYR36      -0.2733
     16  CB        15.3300   40.6160   80.9670 C.3    36  TYR36       0.0547
     17  CG        14.6890   41.3250   82.1270 C.ar   36  TYR36      -0.0200
     18  CD1       15.4520   42.0790   83.0150 C.ar   36  TYR36      -0.0009
     19  CD2       13.3140   41.2600   82.3240 C.ar   36  TYR36      -0.0009
     20  CE1       14.8620   42.7560   84.0680 C.ar   36  TYR36       0.0417
     21  CE2       12.7120   41.9340   83.3760 C.ar   36  TYR36       0.0417
     22  CZ        13.4890   42.6820   84.2400 C.ar   36  TYR36       0.1957
     23  OH        12.8970   43.3940   85.2590 O.3    36  TYR36      -0.2866
     24  N         17.4540   40.6430   78.6890 N.am   37  PRO37      -0.2729
     25  CA        18.2820   39.8540   77.7850 C.3    37  PRO37       0.1401
     26  C         18.5240   38.5250   78.5060 C.2    37  PRO37       0.2269
     27  O         18.3940   38.4550   79.7290 O.2    37  PRO37      -0.2865
     28  CB        19.5470   40.6780   77.6570 C.3    37  PRO37       0.0296
     29  CG        19.6830   41.2800   79.0370 C.3    37  PRO37       0.0237
     30  CD        18.2590   41.6860   79.3680 C.3    37  PRO37       0.0939
     31  N         14.5710   31.3390   75.6480 N.3    56  TRP56      -0.1241
     32  CA        13.4400   31.8900   76.4140 C.3    56  TRP56       0.1605
     33  C         12.1240   32.0200   75.6320 C.2    56  TRP56       0.2264
     34  O         11.5580   33.1080   75.5360 O.2    56  TRP56      -0.2867
     35  CB        13.8370   33.2650   76.9890 C.3    56  TRP56       0.0550
     36  CG        13.0800   33.7050   78.2230 C.ar   56  TRP56       0.0003
     37  CD1       11.9560   33.1300   78.7540 C.ar   56  TRP56       0.0946
     38  CD2       13.3870   34.8330   79.0660 C.ar   56  TRP56       0.0152
     39  NE1       11.5470   33.8270   79.8680 N.ar   56  TRP56      -0.2442
     40  CE2       12.4020   34.8770   80.0820 C.ar   56  TRP56       0.0810
     41  CE3       14.3920   35.8080   79.0570 C.ar   56  TRP56       0.0012
     42  CZ2       12.3950   35.8610   81.0830 C.ar   56  TRP56       0.0191
     43  CZ3       14.3850   36.7960   80.0550 C.ar   56  TRP56       0.0001
     44  CH2       13.3920   36.8100   81.0520 C.ar   56  TRP56       0.0015
     45  N         18.4120   24.6330   84.1580 N.3    83  HIS83      -0.1241
     46  CA        17.4610   24.6910   85.2670 C.3    83  HIS83       0.1621
     47  C         16.0470   24.8090   84.7210 C.2    83  HIS83       0.2264
     48  O         15.8630   24.9500   83.5050 O.2    83  HIS83      -0.2867
     49  CB        17.8230   25.7450   86.3510 C.3    83  HIS83       0.0745
     50  CG        17.5430   27.1700   85.9890 C.ar   83  HIS83       0.0817
     51  ND1       18.4780   27.9850   85.3920 N.ar   83  HIS83      -0.2268
     52  CD2       16.4620   27.9490   86.2230 C.ar   83  HIS83       0.1154
     53  CE1       17.9890   29.2060   85.2770 C.ar   83  HIS83       0.1986
     54  NE2       16.7650   29.2100   85.7720 N.ar   83  HIS83      -0.2212
     55  N         13.4530   27.1250   84.8490 N.3    85  HIS85      -0.1241
     56  CA        12.7360   28.3360   84.4600 C.3    85  HIS85       0.1621
     57  C         12.5520   28.4420   82.9540 C.2    85  HIS85       0.2264
     58  O         13.2530   27.7870   82.1830 O.2    85  HIS85      -0.2867
     59  CB        13.4410   29.5760   85.0100 C.3    85  HIS85       0.0745
     60  CG        13.2950   29.7400   86.4900 C.ar   85  HIS85       0.0817
     61  ND1       14.0470   30.6350   87.2180 N.ar   85  HIS85      -0.2268
     62  CD2       12.4760   29.1270   87.3810 C.ar   85  HIS85       0.1154
     63  CE1       13.7040   30.5650   88.4930 C.ar   85  HIS85       0.1986
     64  NE2       12.7520   29.6580   88.6190 N.ar   85  HIS85      -0.2212
     65  N         13.3830   30.6210   80.7450 N.3    87  ASP87      -0.1239
     66  CA        14.4900   31.0660   79.9100 C.3    87  ASP87       0.1674
     67  C         15.4550   29.9410   79.6070 C.2    87  ASP87       0.2266
     68  O         16.4140   30.1280   78.8520 O.2    87  ASP87      -0.2867
     69  CB        15.2440   32.2310   80.5590 C.3    87  ASP87       0.1410
     70  CG        15.7440   31.9180   81.9590 C.2    87  ASP87       0.3668
     71  OD1       16.6080   32.6710   82.4290 O.co2  87  ASP87      -0.2456
     72  OD2       15.2760   30.9490   82.5930 O.co2  87  ASP87      -0.2456
     73  N         20.7940   29.6620   92.6110 N.3   148  HIS148     -0.1241
     74  CA        19.7040   30.4250   92.0030 C.3   148  HIS148      0.1621
     75  C         18.4170   29.6040   92.1070 C.2   148  HIS148      0.2264
     76  O         17.3340   30.1460   92.3270 O.2   148  HIS148     -0.2867
     77  CB        20.0340   30.7060   90.5330 C.3   148  HIS148      0.0745
     78  CG        18.8790   31.2220   89.7310 C.ar  148  HIS148      0.0817
     79  ND1       18.4100   32.5140   89.8410 N.ar  148  HIS148     -0.2268
     80  CD2       18.1120   30.6220   88.7880 C.ar  148  HIS148      0.1154
     81  CE1       17.4040   32.6890   89.0010 C.ar  148  HIS148      0.1986
     82  NE2       17.2030   31.5560   88.3520 N.ar  148  HIS148     -0.2212
     83  N         22.1500   30.9450   85.3030 N.3   167  CYS167     -0.1235
     84  CA        21.5910   31.9900   86.1460 C.3   167  CYS167      0.1677
     85  C         22.0790   32.0560   87.5820 C.2   167  CYS167      0.2270
     86  O         21.7100   32.9620   88.3290 O.2   167  CYS167     -0.2867
     87  CB        20.0740   31.9080   86.0560 C.3   167  CYS167      0.0956
     88  SG        19.6360   32.0790   84.3220 S.3   167  CYS167     -0.0801
     89  N         25.5470   43.8240   87.7940 N.3   174  ARG174     -0.1245
     90  CA        24.3460   43.5830   88.5860 C.3   174  ARG174      0.1563
     91  C         24.6970   43.6720   90.0680 C.2   174  ARG174      0.2260
     92  O         25.4640   42.8540   90.5830 O.2   174  ARG174     -0.2867
     93  CB        23.7840   42.2020   88.2610 C.3   174  ARG174      0.0307
     94  CG        22.4480   41.8850   88.9050 C.3   174  ARG174      0.0489
     95  CD        21.9510   40.5350   88.4260 C.3   174  ARG174      0.2205
     96  NE        20.6160   40.2220   88.9170 N.pl3 174  ARG174     -0.0865
     97  CZ        19.9860   39.0800   88.6610 C.cat 174  ARG174      0.5346
     98  NH1       20.5750   38.1450   87.9220 N.pl3 174  ARG174      0.1354
     99  NH2       18.7650   38.8730   89.1380 N.pl3 174  ARG174      0.1354
    100  N         17.6360   40.7910   92.8860 N.3   178  GLY178     -0.1210
    101  CA        16.4860   40.6510   92.0130 C.3   178  GLY178      0.1956
    102  C         15.6030   39.5080   92.4690 C.2   178  GLY178      0.2611
    103  O         15.4600   39.2890   93.6670 O.2   178  GLY178     -0.2717
    104  N         15.0280   38.7710   91.5250 N.am  179  ASN179     -0.1974
    105  CA        14.1500   37.6560   91.8530 C.3   179  ASN179      0.1688
    106  C         14.9040   36.4080   92.3170 C.2   179  ASN179      0.2292
    107  O         15.5910   35.7550   91.5280 O.2   179  ASN179     -0.2864
    108  CB        13.2730   37.3190   90.6390 C.3   179  ASN179      0.1181
    109  CG        12.2640   36.2180   90.9300 C.2   179  ASN179      0.2629
    110  OD1       11.9700   35.9150   92.0900 O.2   179  ASN179     -0.2716
    111  ND2       11.7160   35.6230   89.8760 N.am  179  ASN179     -0.0877
    112  N         22.4610   35.9180   82.4290 N.3   209  HIS209     -0.1241
    113  CA        21.9830   37.2060   81.9240 C.3   209  HIS209      0.1621
    114  C         23.0940   38.2400   82.0150 C.2   209  HIS209      0.2264
    115  O         23.7110   38.4100   83.0670 O.2   209  HIS209     -0.2867
    116  CB        20.8020   37.7040   82.7540 C.3   209  HIS209      0.0745
    117  CG        19.6770   36.7260   82.8450 C.ar  209  HIS209      0.0817
    118  ND1       18.6860   36.6340   81.8890 N.ar  209  HIS209     -0.2268
    119  CD2       19.4160   35.7580   83.7540 C.ar  209  HIS209      0.1154
    120  CE1       17.8650   35.6490   82.2070 C.ar  209  HIS209      0.1986
    121  NE2       18.2870   35.1030   83.3330 N.ar  209  HIS209     -0.2212
@<TRIPOS>BOND
     1    34    33    2
     2    33    32    1
     3    31    32    1
     4    32    35    1
     5    35    36    1
     6    28    25    1
     7    28    29    1
     8    25    26    1
     9    25    24    1
    10    15    14    2
    11    36    37   ar
    12    36    38   ar
    13    26    27    2
    14    14    24   am
    15    14    13    1
    16    24    30    1
    17    37    39   ar
    18    68    67    2
    19    29    30    1
    20    41    38   ar
    21    41    43   ar
    22    38    40   ar
    23    12    13    1
    24    67    66    1
    25    13    16    1
    26    39    40   ar
    27    66    69    1
    28    66    65    1
    29    43    44   ar
    30    40    42   ar
    31    69    70    1
    32    16    17    1
    33    44    42   ar
    34     1     2    1
    35   118   120   ar
    36   118   117   ar
    37   113   114    1
    38   113   112    1
    39   113   116    1
    40    70    71   ar
    41    70    72   ar
    42   114   115    2
    43    17    19   ar
    44    17    18   ar
    45    58    57    2
    46   120   121   ar
    47    19    21   ar
    48     2     5    1
    49     2     3    1
    50   116   117    1
    51   117   119   ar
    52    57    56    1
    53     5     6    1
    54    18    20   ar
    55   121   119   ar
    56     3     4    2
    57    21    22   ar
    58    48    47    2
    59    20    22   ar
    60    45    46    1
    61    22    23    1
    62    88    87    1
    63     6     8   ar
    64     6     7   ar
    65    56    55    1
    66    56    59    1
    67     8    10   ar
    68    47    46    1
    69    59    60    1
    70    46    49    1
    71    53    51   ar
    72    53    54   ar
    73    83    84    1
    74    51    50   ar
    75     7     9   ar
    76    10    11   ar
    77    54    52   ar
    78    50    52   ar
    79    50    49    1
    80    87    84    1
    81    84    85    1
    82    60    61   ar
    83    60    62   ar
    84     9    11   ar
    85    61    63   ar
    86    62    64   ar
    87    85    86    2
    88    89    90    1
    89    98    97    1
    90    93    90    1
    91    93    94    1
    92    82    80   ar
    93    82    81   ar
    94    95    94    1
    95    95    96    1
    96    63    64   ar
    97    90    91    1
    98    97    96    2
    99    97    99    1
   100    80    78   ar
   101    81    79   ar
   102    78    79   ar
   103    78    77    1
   104   111   109   am
   105    91    92    2
   106    77    74    1
   107   108   109    1
   108   108   105    1
   109   109   110    2
   110   104   105    1
   111   104   102   am
   112   107   106    2
   113   105   106    1
   114    74    75    1
   115    74    73    1
   116   101   102    1
   117   101   100    1
   118    75    76    2
   119   102   103    2
