@<TRIPOS>MOLECULE
tmp/2yzcF00.pdb
 82 76 0 0 0
SMALL
GASTEIGER

@<TRIPOS>ATOM
      1  N         22.2080   54.1070  -68.6750 N.3   153  PHE153     -0.1241
      2  CA        20.8910   54.4470  -68.1720 C.3   153  PHE153      0.1605
      3  C         20.0380   54.9370  -69.3270 C.2   153  PHE153      0.2264
      4  O         20.1500   56.0860  -69.7640 O.2   153  PHE153     -0.2867
      5  CB        20.9440   55.5010  -67.0640 C.3   153  PHE153      0.0534
      6  CG        19.6170   55.7200  -66.3980 C.ar  153  PHE153     -0.0203
      7  CD1       18.9130   54.6420  -65.8670 C.ar  153  PHE153     -0.0042
      8  CD2       19.0530   56.9890  -66.3250 C.ar  153  PHE153     -0.0042
      9  CE1       17.6620   54.8240  -65.2750 C.ar  153  PHE153     -0.0003
     10  CE2       17.8040   57.1830  -65.7350 C.ar  153  PHE153     -0.0003
     11  CZ        17.1060   56.0970  -65.2090 C.ar  153  PHE153     -0.0000
     12  N         16.1860   64.4720  -69.2380 N.3   164  LEU164     -0.1245
     13  CA        17.3880   63.6470  -69.1730 C.3   164  LEU164      0.1561
     14  C         17.6300   62.8680  -70.4590 C.2   164  LEU164      0.2260
     15  O         16.7340   62.1980  -70.9700 O.2   164  LEU164     -0.2867
     16  CB        17.3000   62.6640  -68.0050 C.3   164  LEU164      0.0270
     17  CG        18.5200   61.7550  -67.8060 C.3   164  LEU164      0.0019
     18  CD1       19.7240   62.5870  -67.3830 C.3   164  LEU164      0.0001
     19  CD2       18.2030   60.7070  -66.7460 C.3   164  LEU164      0.0001
     20  N         28.2880   56.4500  -68.6160 N.3   170  ARG170     -0.1245
     21  CA        28.2750   57.5100  -67.6120 C.3   170  ARG170      0.1563
     22  C         29.0620   57.0650  -66.3840 C.2   170  ARG170      0.2260
     23  O         29.4220   55.8960  -66.2520 O.2   170  ARG170     -0.2867
     24  CB        26.8370   57.8300  -67.1840 C.3   170  ARG170      0.0307
     25  CG        26.1820   56.7010  -66.3850 C.3   170  ARG170      0.0489
     26  CD        24.7950   57.0630  -65.8840 C.3   170  ARG170      0.2205
     27  NE        24.2320   55.9950  -65.0570 N.pl3 170  ARG170     -0.0865
     28  CZ        23.0800   56.0790  -64.3980 C.cat 170  ARG170      0.5346
     29  NH1       22.3520   57.1870  -64.4630 N.pl3 170  ARG170      0.1354
     30  NH2       22.6580   55.0530  -63.6650 N.pl3 170  ARG170      0.1354
     31  N         21.4420   50.0530  -64.4290 N.3   211  ALA211     -0.1231
     32  CA        20.6670   50.8600  -63.4870 C.3   211  ALA211      0.1694
     33  C         21.2700   50.7140  -62.0970 C.2   211  ALA211      0.2592
     34  O         21.8130   49.6650  -61.7620 O.2   211  ALA211     -0.2718
     35  CB        19.2010   50.3910  -63.4670 C.3   211  ALA211      0.0304
     36  N         21.1700   51.7560  -61.2820 N.am  212  LEU212     -0.1966
     37  CA        21.7140   51.6760  -59.9320 C.3   212  LEU212      0.1728
     38  C         20.9590   50.5730  -59.1830 C.2   212  LEU212      0.2616
     39  O         21.5330   49.8650  -58.3510 O.2   212  LEU212     -0.2715
     40  CB        21.5480   53.0150  -59.1970 C.3   212  LEU212      0.0311
     41  CG        22.7040   53.4420  -58.2750 C.3   212  LEU212      0.0022
     42  CD1       22.2430   54.5730  -57.3580 C.3   212  LEU212      0.0001
     43  CD2       23.1940   52.2700  -57.4530 C.3   212  LEU212      0.0001
     44  N         19.6720   50.4250  -59.4930 N.am  213  GLN213     -0.1977
     45  CA        18.8500   49.4040  -58.8470 C.3   213  GLN213      0.1601
     46  C         19.4020   48.0100  -59.1180 C.2   213  GLN213      0.2287
     47  O         19.4270   47.1630  -58.2220 O.2   213  GLN213     -0.2864
     48  CB        17.3920   49.4780  -59.3330 C.3   213  GLN213      0.0394
     49  CG        16.6260   50.7150  -58.8690 C.3   213  GLN213      0.0908
     50  CD        16.7630   51.8980  -59.8120 C.2   213  GLN213      0.2608
     51  OE1       17.7810   52.0610  -60.4850 O.2   213  GLN213     -0.2717
     52  NE2       15.7380   52.7480  -59.8450 N.am  213  GLN213     -0.0878
     53  N         22.9600   58.3690  -55.8390 N.3   239  ASN239     -0.1240
     54  CA        23.6060   58.4190  -57.1430 C.3   239  ASN239      0.1653
     55  C         24.2420   59.8040  -57.1390 C.2   239  ASN239      0.2266
     56  O         23.5690   60.8090  -57.3800 O.2   239  ASN239     -0.2867
     57  CB        22.6060   58.3000  -58.2900 C.3   239  ASN239      0.1155
     58  CG        23.2830   57.9180  -59.6030 C.2   239  ASN239      0.2627
     59  OD1       24.4400   58.2670  -59.8370 O.2   239  ASN239     -0.2716
     60  ND2       22.5690   57.2020  -60.4590 N.am  239  ASN239     -0.0877
     61  N         25.7930   62.4180  -58.6980 N.3   241  HIS241     -0.1241
     62  CA        25.9570   62.8680  -60.0680 C.3   241  HIS241      0.1621
     63  C         27.2620   63.5570  -60.4130 C.2   241  HIS241      0.2264
     64  O         27.7270   64.4480  -59.7050 O.2   241  HIS241     -0.2867
     65  CB        24.7800   63.7680  -60.4480 C.3   241  HIS241      0.0745
     66  CG        23.4470   63.1160  -60.2610 C.ar  241  HIS241      0.0817
     67  ND1       22.4640   63.6460  -59.4540 N.ar  241  HIS241     -0.2268
     68  CD2       22.9520   61.9500  -60.7400 C.ar  241  HIS241      0.1154
     69  CE1       21.4220   62.8340  -59.4410 C.ar  241  HIS241      0.1986
     70  NE2       21.6930   61.7970  -60.2140 N.ar  241  HIS241     -0.2212
     71  N         20.3410   61.2670  -56.6190 N.3   267  GLY267     -0.1225
     72  CA        19.3740   60.1930  -56.6510 C.3   267  GLY267      0.1811
     73  C         19.5990   59.3830  -55.3890 C.2   267  GLY267      0.2280
     74  O         20.6970   59.3860  -54.8350 O.2   267  GLY267     -0.2866
     75  N         18.6200   55.5250  -54.1760 N.3   269  ILE269     -0.1245
     76  CA        18.0200   54.2330  -54.4760 C.3   269  ILE269      0.1561
     77  C         18.1920   53.3170  -53.2710 C.2   269  ILE269      0.2260
     78  O         19.2970   53.1480  -52.7640 O.2   269  ILE269     -0.2867
     79  CB        18.6820   53.6230  -55.7450 C.3   269  ILE269      0.0252
     80  CG1       18.1530   54.3190  -57.0040 C.3   269  ILE269      0.0019
     81  CG2       18.3730   52.1460  -55.8520 C.3   269  ILE269      0.0019
     82  CD1       18.3560   55.8140  -57.0470 C.3   269  ILE269      0.0001
@<TRIPOS>BOND
     1    15    14    2
     2    14    13    1
     3     4     3    2
     4     3     2    1
     5    12    13    1
     6    13    16    1
     7     1     2    1
     8    20    21    1
     9     2     5    1
    10    16    17    1
    11    17    18    1
    12    17    19    1
    13    21    24    1
    14    21    22    1
    15    24    25    1
    16     5     6    1
    17     6     8   ar
    18     6     7   ar
    19    25    26    1
    20    22    23    2
    21     8    10   ar
    22    26    27    1
    23     7     9   ar
    24    10    11   ar
    25     9    11   ar
    26    27    28    2
    27    29    28    1
    28    31    32    1
    29    28    30    1
    30    32    35    1
    31    32    33    1
    32    33    34    2
    33    33    36   am
    34    36    37    1
    35    68    66   ar
    36    68    70   ar
    37    51    50    2
    38    60    58   am
    39    65    66    1
    40    65    62    1
    41    63    62    1
    42    63    64    2
    43    66    67   ar
    44    70    69   ar
    45    62    61    1
    46    37    40    1
    47    37    38    1
    48    52    50   am
    49    59    58    2
    50    50    49    1
    51    58    57    1
    52    44    38   am
    53    44    45    1
    54    67    69   ar
    55    48    49    1
    56    48    45    1
    57    40    41    1
    58    38    39    2
    59    46    45    1
    60    46    47    2
    61    57    54    1
    62    41    43    1
    63    41    42    1
    64    56    55    2
    65    54    55    1
    66    54    53    1
    67    82    80    1
    68    80    79    1
    69    72    71    1
    70    72    73    1
    71    81    79    1
    72    79    76    1
    73    73    74    2
    74    76    75    1
    75    76    77    1
    76    77    78    2
