@<TRIPOS>MOLECULE
tmp/2yzjA00.pdb
 122 118 0 0 0
SMALL
GASTEIGER

@<TRIPOS>ATOM
      1  N         -7.6340   -1.4040   -0.3470 N.3    87  ILE87      -0.1245
      2  CA        -7.8690   -0.0900    0.2300 C.3    87  ILE87       0.1561
      3  C         -6.5900    0.7310    0.1360 C.2    87  ILE87       0.2260
      4  O         -5.5800    0.3860    0.7540 O.2    87  ILE87      -0.2867
      5  CB        -8.2720   -0.1810    1.7180 C.3    87  ILE87       0.0252
      6  CG1       -9.5470   -1.0200    1.8660 C.3    87  ILE87       0.0019
      7  CG2       -8.4820    1.2280    2.2810 C.3    87  ILE87       0.0019
      8  CD1      -10.0380   -1.1560    3.2930 C.3    87  ILE87       0.0001
      9  N         -4.4750   -2.2760    2.9090 N.3   103  THR103     -0.1203
     10  CA        -5.2050   -3.4020    3.5070 C.3   103  THR103      0.1994
     11  C         -6.2500   -3.8480    2.4980 C.2   103  THR103      0.2618
     12  O         -6.5200   -3.1370    1.5340 O.2   103  THR103     -0.2717
     13  CB        -5.9040   -3.0390    4.8330 C.3   103  THR103      0.1784
     14  OG1       -6.8390   -1.9830    4.6080 O.3   103  THR103     -0.2211
     15  CG2       -4.8780   -2.6180    5.8900 C.3   103  THR103      0.0376
     16  N         -6.8550   -5.0100    2.7310 N.am  104  VAL104     -0.1965
     17  CA        -7.8170   -5.5540    1.7800 C.3   104  VAL104      0.1727
     18  C         -9.1490   -5.9930    2.3800 C.2   104  VAL104      0.2616
     19  O         -9.2100   -6.4200    3.5310 O.2   104  VAL104     -0.2715
     20  CB        -7.1900   -6.7790    1.0500 C.3   104  VAL104      0.0290
     21  CG1       -8.1800   -7.3950    0.0730 C.3   104  VAL104      0.0023
     22  CG2       -5.9200   -6.3550    0.3230 C.3   104  VAL104      0.0023
     23  N        -10.2110   -5.8650    1.5850 N.am  105  ILE105     -0.1963
     24  CA       -11.5420   -6.3140    1.9800 C.3   105  ILE105      0.1727
     25  C        -11.6990   -7.6010    1.1720 C.2   105  ILE105      0.2616
     26  O        -11.6340   -7.5830   -0.0630 O.2   105  ILE105     -0.2715
     27  CB       -12.6590   -5.3440    1.5540 C.3   105  ILE105      0.0290
     28  CG1      -12.4250   -3.9590    2.1630 C.3   105  ILE105      0.0022
     29  CG2      -14.0140   -5.8950    2.0170 C.3   105  ILE105      0.0023
     30  CD1      -13.4120   -2.9030    1.6830 C.3   105  ILE105      0.0001
     31  N        -11.9080   -8.7060    1.8720 N.am  106  ASP106     -0.1971
     32  CA       -12.0220  -10.0180    1.2470 C.3   106  ASP106      0.1709
     33  C        -13.3970  -10.3720    0.7080 C.2   106  ASP106      0.2293
     34  O        -14.4090   -9.8230    1.1370 O.2   106  ASP106     -0.2864
     35  CB       -11.5900  -11.0820    2.2520 C.3   106  ASP106      0.1436
     36  CG       -10.2470  -10.7700    2.8710 C.2   106  ASP106      0.3671
     37  OD1       -9.2420  -10.7390    2.1260 O.co2 106  ASP106     -0.2456
     38  OD2      -10.2000  -10.5390    4.0980 O.co2 106  ASP106     -0.2456
     39  N        -16.9090  -10.7810    2.7140 N.3   109  TYR109     -0.1241
     40  CA       -16.9910   -9.8790    3.8570 C.3   109  TYR109      0.1605
     41  C        -18.2880   -9.0810    3.8390 C.2   109  TYR109      0.2264
     42  O        -18.7310   -8.6150    2.7870 O.2   109  TYR109     -0.2867
     43  CB       -15.8180   -8.9000    3.8660 C.3   109  TYR109      0.0534
     44  CG       -15.8450   -7.9700    5.0560 C.ar  109  TYR109     -0.0201
     45  CD1      -15.4960   -8.4260    6.3280 C.ar  109  TYR109     -0.0009
     46  CD2      -16.2410   -6.6400    4.9180 C.ar  109  TYR109     -0.0009
     47  CE1      -15.5370   -7.5840    7.4340 C.ar  109  TYR109      0.0417
     48  CE2      -16.2890   -5.7850    6.0210 C.ar  109  TYR109      0.0417
     49  CZ       -15.9330   -6.2640    7.2740 C.ar  109  TYR109      0.1957
     50  OH       -15.9540   -5.4210    8.3630 O.3   109  TYR109     -0.2866
     51  N        -16.3230   -1.1290    7.2040 N.3   113  VAL113     -0.1231
     52  CA       -14.9390   -1.4400    7.5200 C.3   113  VAL113      0.1692
     53  C        -14.4310   -0.4170    8.5220 C.2   113  VAL113      0.2592
     54  O        -15.0060    0.6580    8.6800 O.2   113  VAL113     -0.2718
     55  CB       -14.0310   -1.4100    6.2690 C.3   113  VAL113      0.0266
     56  CG1      -14.4120   -2.5460    5.3250 C.3   113  VAL113      0.0020
     57  CG2      -14.1360   -0.0560    5.5680 C.3   113  VAL113      0.0020
     58  N        -13.3630   -0.7740    9.2180 N.am  114  ASN114     -0.1960
     59  CA       -12.7520    0.1150   10.1860 C.3   114  ASN114      0.1819
     60  C        -11.3340    0.3200    9.6830 C.2   114  ASN114      0.2621
     61  O        -10.5640   -0.6380    9.5600 O.2   114  ASN114     -0.2715
     62  CB       -12.7750   -0.5300   11.5680 C.3   114  ASN114      0.1195
     63  CG       -14.1850   -0.6730   12.1080 C.2   114  ASN114      0.2630
     64  OD1      -14.8210    0.3150   12.4770 O.2   114  ASN114     -0.2716
     65  ND2      -14.6880   -1.9020   12.1380 N.am  114  ASN114     -0.0877
     66  N        -11.0090    1.5690    9.3650 N.am  115  VAL115     -0.1963
     67  CA        -9.7020    1.9120    8.8260 C.3   115  VAL115      0.1727
     68  C         -8.8190    2.6620    9.8080 C.2   115  VAL115      0.2616
     69  O         -9.2910    3.5000   10.5860 O.2   115  VAL115     -0.2715
     70  CB        -9.8560    2.7470    7.5360 C.3   115  VAL115      0.0290
     71  CG1      -10.6040    1.9360    6.4890 C.3   115  VAL115      0.0023
     72  CG2      -10.6020    4.0400    7.8310 C.3   115  VAL115      0.0023
     73  N         -7.5260    2.3570    9.7580 N.am  116  ALA116     -0.1977
     74  CA        -6.5520    2.9740   10.6440 C.3   116  ALA116      0.1597
     75  C         -5.7670    4.0700    9.9420 C.2   116  ALA116      0.2287
     76  O         -5.0810    3.8250    8.9490 O.2   116  ALA116     -0.2864
     77  CB        -5.5960    1.9150   11.1820 C.3   116  ALA116      0.0319
     78  N        -15.1170  -15.0900    3.4410 N.3   146  TYR146     -0.1241
     79  CA       -14.7110  -14.5680    4.7410 C.3   146  TYR146      0.1605
     80  C        -15.7130  -14.8860    5.8490 C.2   146  TYR146      0.2264
     81  O        -16.9250  -14.7800    5.6550 O.2   146  TYR146     -0.2867
     82  CB       -14.5260  -13.0510    4.6760 C.3   146  TYR146      0.0534
     83  CG       -14.0110  -12.4720    5.9750 C.ar  146  TYR146     -0.0201
     84  CD1      -12.6760  -12.6310    6.3430 C.ar  146  TYR146     -0.0009
     85  CD2      -14.8650  -11.8110    6.8590 C.ar  146  TYR146     -0.0009
     86  CE1      -12.2000  -12.1510    7.5570 C.ar  146  TYR146      0.0417
     87  CE2      -14.3970  -11.3230    8.0880 C.ar  146  TYR146      0.0417
     88  CZ       -13.0620  -11.5000    8.4270 C.ar  146  TYR146      0.1957
     89  OH       -12.5830  -11.0560    9.6370 O.3   146  TYR146     -0.2866
     90  N        -14.2030  -14.4840    9.3250 N.3   148  GLY148     -0.1210
     91  CA       -13.3260  -14.1810   10.4400 C.3   148  GLY148      0.1956
     92  C        -13.9300  -13.3810   11.5760 C.2   148  GLY148      0.2612
     93  O        -15.1230  -13.0700   11.5800 O.2   148  GLY148     -0.2717
     94  N        -13.0770  -13.0360   12.5370 N.am  149  LYS149     -0.1965
     95  CA       -13.4660  -12.2920   13.7300 C.3   149  LYS149      0.1728
     96  C        -13.9680  -10.8690   13.5060 C.2   149  LYS149      0.2616
     97  O        -14.4920  -10.2500   14.4330 O.2   149  LYS149     -0.2715
     98  CB       -12.2930  -12.2520   14.7120 C.3   149  LYS149      0.0311
     99  CG       -11.0540  -11.5570   14.1630 C.3   149  LYS149      0.0038
    100  CD        -9.9110  -11.5740   15.1670 C.3   149  LYS149      0.0206
    101  CE       -10.2750  -10.8240   16.4390 C.3   149  LYS149      0.1093
    102  NZ        -9.1970  -10.9140   17.4590 N.3   149  LYS149     -0.1314
    103  N        -13.8100  -10.3390   12.2960 N.am  150  TYR150     -0.1974
    104  CA       -14.2670   -8.9790   12.0270 C.3   150  TYR150      0.1639
    105  C        -15.5650   -8.9210   11.2270 C.2   150  TYR150      0.2290
    106  O        -16.0550   -7.8320   10.9190 O.2   150  TYR150     -0.2864
    107  CB       -13.1970   -8.1880   11.2740 C.3   150  TYR150      0.0560
    108  CG       -11.8870   -8.0330   12.0040 C.ar  150  TYR150     -0.0198
    109  CD1      -11.8250   -7.4300   13.2630 C.ar  150  TYR150     -0.0009
    110  CD2      -10.6970   -8.4570   11.4190 C.ar  150  TYR150     -0.0009
    111  CE1      -10.5990   -7.2510   13.9160 C.ar  150  TYR150      0.0417
    112  CE2       -9.4740   -8.2830   12.0560 C.ar  150  TYR150      0.0417
    113  CZ        -9.4260   -7.6820   13.2990 C.ar  150  TYR150      0.1957
    114  OH        -8.2030   -7.5040   13.9120 O.3   150  TYR150     -0.2866
    115  N        -16.8640   -5.6280   12.9070 N.3   154  ILE154     -0.1245
    116  CA       -16.2970   -5.5680   14.2530 C.3   154  ILE154      0.1561
    117  C        -15.0710   -4.6600   14.2690 C.2   154  ILE154      0.2260
    118  O        -14.1630   -4.8060   13.4500 O.2   154  ILE154     -0.2867
    119  CB       -15.9050   -6.9730   14.7640 C.3   154  ILE154      0.0252
    120  CG1      -17.1380   -7.8790   14.7680 C.3   154  ILE154      0.0019
    121  CG2      -15.3290   -6.8790   16.1750 C.3   154  ILE154      0.0019
    122  CD1      -18.2990   -7.3350   15.5850 C.3   154  ILE154      0.0001
@<TRIPOS>BOND
     1     1     2    1
     2    26    25    2
     3    21    20    1
     4     3     2    1
     5     3     4    2
     6     2     5    1
     7    22    20    1
     8    33    34    2
     9    33    32    1
    10    20    17    1
    11    25    31   am
    12    25    24    1
    13    32    31    1
    14    32    35    1
    15    12    11    2
    16    27    24    1
    17    27    29    1
    18    27    28    1
    19    23    24    1
    20    23    18   am
    21    30    28    1
    22     5     6    1
    23     5     7    1
    24    17    18    1
    25    17    16    1
    26     6     8    1
    27    37    36   ar
    28    35    36    1
    29    18    19    2
    30    11    16   am
    31    11    10    1
    32    39    40    1
    33    42    41    2
    34    36    38   ar
    35     9    10    1
    36    78    79    1
    37    10    13    1
    38    41    40    1
    39    40    43    1
    40    43    44    1
    41    14    13    1
    42    82    79    1
    43    82    83    1
    44    79    80    1
    45    13    15    1
    46    46    44   ar
    47    46    48   ar
    48    44    45   ar
    49    56    55    1
    50    57    55    1
    51    81    80    2
    52    83    84   ar
    53    83    85   ar
    54    48    49   ar
    55    55    52    1
    56    45    47   ar
    57    84    86   ar
    58    71    70    1
    59    85    87   ar
    60    51    52    1
    61    49    47   ar
    62    49    50    1
    63    52    53    1
    64    70    72    1
    65    70    67    1
    66    86    88   ar
    67    87    88   ar
    68    88    89    1
    69    53    54    2
    70    53    58   am
    71    67    66    1
    72    67    68    1
    73    76    75    2
    74    58    59    1
    75    90    91    1
    76    66    60   am
    77    61    60    2
    78    60    59    1
    79    73    68   am
    80    73    74    1
    81    68    69    2
    82    75    74    1
    83    59    62    1
    84    91    92    1
    85    74    77    1
    86   106   105    2
    87   105   104    1
    88   107   108    1
    89   107   104    1
    90   110   108   ar
    91   110   112   ar
    92    62    63    1
    93    92    93    2
    94    92    94   am
    95   108   109   ar
    96   104   103    1
    97   112   113   ar
    98    63    65   am
    99    63    64    2
   100   103    96   am
   101    94    95    1
   102   115   116    1
   103   109   111   ar
   104   113   114    1
   105   113   111   ar
   106   118   117    2
   107    96    95    1
   108    96    97    2
   109    95    98    1
   110    99    98    1
   111    99   100    1
   112   116   117    1
   113   116   119    1
   114   119   120    1
   115   119   121    1
   116   120   122    1
   117   100   101    1
   118   101   102    1
