@<TRIPOS>MOLECULE
tmp/2yzlA00.pdb
 141 132 0 0 0
SMALL
GASTEIGER

@<TRIPOS>ATOM
      1  N         39.6070   21.0580   26.6390 N.3    12  TYR12      -0.1241
      2  CA        39.6420   21.9790   25.5140 C.3    12  TYR12       0.1605
      3  C         39.2740   23.3840   25.9600 C.2    12  TYR12       0.2264
      4  O         38.3980   23.5680   26.8030 O.2    12  TYR12      -0.2867
      5  CB        38.6610   21.5440   24.4290 C.3    12  TYR12       0.0534
      6  CG        38.6180   22.5200   23.2820 C.ar   12  TYR12      -0.0201
      7  CD1       39.6870   22.6200   22.3920 C.ar   12  TYR12      -0.0009
      8  CD2       37.5440   23.3910   23.1230 C.ar   12  TYR12      -0.0009
      9  CE1       39.6890   23.5650   21.3740 C.ar   12  TYR12       0.0417
     10  CE2       37.5360   24.3420   22.1060 C.ar   12  TYR12       0.0417
     11  CZ        38.6120   24.4240   21.2360 C.ar   12  TYR12       0.1957
     12  OH        38.6210   25.3690   20.2380 O.3    12  TYR12      -0.2866
     13  N         38.3550   27.2160   24.2790 N.3    14  GLY14      -0.1210
     14  CA        38.0880   27.9580   23.0610 C.3    14  GLY14       0.1956
     15  C         38.0900   29.4570   23.2810 C.2    14  GLY14       0.2612
     16  O         38.6130   29.9390   24.2790 O.2    14  GLY14      -0.2717
     17  N         37.4890   30.1970   22.3570 N.am   15  LYS15      -0.1965
     18  CA        37.4370   31.6510   22.4600 C.3    15  LYS15       0.1728
     19  C         36.4370   32.1740   23.4910 C.2    15  LYS15       0.2616
     20  O         36.4880   33.3460   23.8610 O.2    15  LYS15      -0.2715
     21  CB        37.0890   32.2660   21.1020 C.3    15  LYS15       0.0311
     22  CG        38.0120   31.8680   19.9750 C.3    15  LYS15       0.0038
     23  CD        37.6560   32.6060   18.6890 C.3    15  LYS15       0.0206
     24  CE        36.2470   32.2740   18.2160 C.3    15  LYS15       0.1093
     25  NZ        36.1150   30.8400   17.8380 N.3    15  LYS15      -0.1314
     26  N         35.5260   31.3220   23.9530 N.am   16  ALA16      -0.1963
     27  CA        34.5280   31.7760   24.9170 C.3    16  ALA16       0.1728
     28  C         34.2940   30.8660   26.1200 C.2    16  ALA16       0.2616
     29  O         33.8120   31.3220   27.1650 O.2    16  ALA16      -0.2715
     30  CB        33.2050   32.0230   24.1990 C.3    16  ALA16       0.0334
     31  N         34.6250   29.5870   25.9830 N.am   17  LYS17      -0.1977
     32  CA        34.3990   28.6490   27.0740 C.3    17  LYS17       0.1596
     33  C         35.5110   27.6210   27.2510 C.2    17  LYS17       0.2287
     34  O         36.3590   27.4480   26.3790 O.2    17  LYS17      -0.2864
     35  CB        33.0720   27.9130   26.8550 C.3    17  LYS17       0.0298
     36  CG        31.8630   28.8190   26.6680 C.3    17  LYS17       0.0038
     37  CD        30.5580   28.0310   26.6800 C.3    17  LYS17       0.0206
     38  CE        30.4510   27.0460   25.5180 C.3    17  LYS17       0.1093
     39  NZ        30.3350   27.7050   24.1820 N.3    17  LYS17      -0.1314
     40  N         36.1890   23.5150   28.4930 N.3    19  ILE19      -0.1245
     41  CA        35.5920   22.2210   28.7810 C.3    19  ILE19       0.1561
     42  C         36.5080   21.4610   29.7350 C.2    19  ILE19       0.2260
     43  O         37.6500   21.1460   29.3940 O.2    19  ILE19      -0.2867
     44  CB        35.3970   21.3770   27.4960 C.3    19  ILE19       0.0252
     45  CG1       34.3820   22.0420   26.5590 C.3    19  ILE19       0.0019
     46  CG2       34.8690   20.0020   27.8580 C.3    19  ILE19       0.0019
     47  CD1       34.8780   23.3290   25.9050 C.3    19  ILE19       0.0001
     48  N         30.9680   16.3990   31.3000 N.3    27  VAL27      -0.1245
     49  CA        31.9400   17.4790   31.3460 C.3    27  VAL27       0.1561
     50  C         31.3890   18.7010   32.0580 C.2    27  VAL27       0.2260
     51  O         30.1800   18.8390   32.2610 O.2    27  VAL27      -0.2867
     52  CB        32.3630   17.9320   29.9330 C.3    27  VAL27       0.0252
     53  CG1       33.2010   16.8590   29.2650 C.3    27  VAL27       0.0019
     54  CG2       31.1180   18.2570   29.1030 C.3    27  VAL27       0.0019
     55  N         31.2960   22.7100   31.7060 N.3    29  ILE29      -0.1245
     56  CA        31.5360   23.7720   30.7450 C.3    29  ILE29       0.1561
     57  C         31.6070   25.0960   31.4880 C.2    29  ILE29       0.2260
     58  O         30.7030   25.4430   32.2500 O.2    29  ILE29      -0.2867
     59  CB        30.4140   23.8660   29.6840 C.3    29  ILE29       0.0252
     60  CG1       30.2570   22.5320   28.9500 C.3    29  ILE29       0.0019
     61  CG2       30.7460   24.9690   28.6900 C.3    29  ILE29       0.0019
     62  CD1       28.9110   22.2660   28.2180 C.3    29  ILE29       0.0001
     63  N         22.5480   18.1520   25.6020 N.3    71  HIS71      -0.1241
     64  CA        23.6400   17.6650   26.4380 C.3    71  HIS71       0.1621
     65  C         23.5530   18.2430   27.8500 C.2    71  HIS71       0.2264
     66  O         24.3590   17.9230   28.7120 O.2    71  HIS71      -0.2867
     67  CB        24.9890   18.0270   25.8010 C.3    71  HIS71       0.0745
     68  CG        25.3660   19.4760   25.9200 C.ar   71  HIS71       0.0817
     69  ND1       24.4360   20.4940   25.9790 N.ar   71  HIS71      -0.2268
     70  CD2       26.5790   20.0790   25.9350 C.ar   71  HIS71       0.1154
     71  CE1       25.0600   21.6590   26.0250 C.ar   71  HIS71       0.1986
     72  NE2       26.3610   21.4340   25.9990 N.ar   71  HIS71      -0.2212
     73  N         27.3970   19.1030   31.5300 N.3    83  ALA83      -0.1231
     74  CA        26.8030   18.5620   30.3210 C.3    83  ALA83       0.1694
     75  C         27.2650   17.1530   30.0040 C.2    83  ALA83       0.2592
     76  O         28.2800   16.6850   30.5140 O.2    83  ALA83      -0.2718
     77  CB        27.1090   19.4880   29.1410 C.3    83  ALA83       0.0304
     78  N         26.4950   16.4770   29.1630 N.am   84  LYS84      -0.1966
     79  CA        26.8570   15.1410   28.7380 C.3    84  LYS84       0.1728
     80  C         27.9870   15.3460   27.7400 C.2    84  LYS84       0.2616
     81  O         27.8980   16.2090   26.8630 O.2    84  LYS84      -0.2715
     82  CB        25.6840   14.4490   28.0460 C.3    84  LYS84       0.0311
     83  CG        24.4790   14.1980   28.9320 C.3    84  LYS84       0.0038
     84  CD        23.3840   13.5000   28.1420 C.3    84  LYS84       0.0206
     85  CE        22.1410   13.2560   28.9790 C.3    84  LYS84       0.1093
     86  NZ        21.1520   12.4250   28.2300 N.3    84  LYS84      -0.1314
     87  N         29.0550   14.5750   27.8870 N.am   85  LYS85      -0.1963
     88  CA        30.1820   14.6820   26.9740 C.3    85  LYS85       0.1728
     89  C         29.8010   14.1050   25.6100 C.2    85  LYS85       0.2616
     90  O         29.3000   12.9840   25.5100 O.2    85  LYS85      -0.2715
     91  CB        31.3870   13.9350   27.5330 C.3    85  LYS85       0.0311
     92  CG        32.6420   14.0930   26.7020 C.3    85  LYS85       0.0038
     93  CD        33.8100   13.3910   27.3620 C.3    85  LYS85       0.0206
     94  CE        35.0900   13.5940   26.5720 C.3    85  LYS85       0.1093
     95  NZ        36.2500   12.9550   27.2480 N.3    85  LYS85      -0.1314
     96  N         30.0270   14.8820   24.5610 N.am   86  VAL86      -0.1977
     97  CA        29.7050   14.4300   23.2190 C.3    86  VAL86       0.1596
     98  C         30.8710   14.7110   22.2900 C.2    86  VAL86       0.2287
     99  O         31.7650   15.4920   22.6070 O.2    86  VAL86      -0.2864
    100  CB        28.4620   15.1610   22.6390 C.3    86  VAL86       0.0276
    101  CG1       27.2800   15.0470   23.5920 C.3    86  VAL86       0.0022
    102  CG2       28.7960   16.6200   22.3700 C.3    86  VAL86       0.0022
    103  N         31.5810   16.4620   19.1280 N.3    88  ILE88      -0.1245
    104  CA        30.9650   17.4480   18.2490 C.3    88  ILE88       0.1561
    105  C         31.1640   17.1920   16.7600 C.2    88  ILE88       0.2260
    106  O         32.2630   16.8610   16.3120 O.2    88  ILE88      -0.2867
    107  CB        31.4710   18.8900   18.5640 C.3    88  ILE88       0.0252
    108  CG1       30.8570   19.3980   19.8680 C.3    88  ILE88       0.0019
    109  CG2       31.0720   19.8500   17.4620 C.3    88  ILE88       0.0019
    110  CD1       29.3680   19.7180   19.8010 C.3    88  ILE88       0.0001
    111  N         32.6750   23.8730   10.1650 N.3   125  LYS125     -0.1245
    112  CA        33.4450   24.4910   11.2380 C.3   125  LYS125      0.1561
    113  C         34.9040   24.1180   11.0180 C.2   125  LYS125      0.2260
    114  O         35.3580   23.0570   11.4400 O.2   125  LYS125     -0.2867
    115  CB        32.9670   23.9980   12.6080 C.3   125  LYS125      0.0271
    116  CG        33.4290   24.8780   13.7660 C.3   125  LYS125      0.0035
    117  CD        32.9520   24.3550   15.1170 C.3   125  LYS125      0.0206
    118  CE        33.3880   25.2850   16.2470 C.3   125  LYS125      0.1093
    119  NZ        33.1180   24.7150   17.6050 N.3   125  LYS125     -0.1314
    120  N         25.1670   23.6480   17.6950 N.3   181  GLU181     -0.1245
    121  CA        26.1380   22.6280   17.3650 C.3   181  GLU181      0.1567
    122  C         25.5780   21.3170   17.8700 C.2   181  GLU181      0.2260
    123  O         24.9110   21.2670   18.9080 O.2   181  GLU181     -0.2867
    124  CB        27.4890   22.9240   18.0190 C.3   181  GLU181      0.0388
    125  CG        28.3620   23.8730   17.2130 C.3   181  GLU181      0.1160
    126  CD        29.6590   24.2070   17.9190 C.2   181  GLU181      0.3649
    127  OE1       30.1280   23.3720   18.7220 O.co2 181  GLU181     -0.2457
    128  OE2       30.2140   25.2980   17.6620 O.co2 181  GLU181     -0.2457
    129  N         24.3110   20.4080   21.4770 N.3   193  ALA193     -0.1231
    130  CA        25.3360   20.6760   22.4770 C.3   193  ALA193      0.1694
    131  C         25.6650   22.1590   22.5810 C.2   193  ALA193      0.2592
    132  O         24.8020   23.0170   22.3830 O.2   193  ALA193     -0.2718
    133  CB        26.5940   19.8840   22.1450 C.3   193  ALA193      0.0304
    134  N         26.9230   22.4420   22.9040 N.am  194  ASP194     -0.1974
    135  CA        27.4230   23.8060   23.0410 C.3   194  ASP194      0.1709
    136  C         26.5080   24.6990   23.8730 C.2   194  ASP194      0.2293
    137  O         26.1770   24.3580   25.0020 O.2   194  ASP194     -0.2864
    138  CB        27.6440   24.4250   21.6580 C.3   194  ASP194      0.1436
    139  CG        28.6420   25.5640   21.6890 C.2   194  ASP194      0.3671
    140  OD1       28.3020   26.6780   21.2300 O.co2 194  ASP194     -0.2456
    141  OD2       29.7690   25.3370   22.1730 O.co2 194  ASP194     -0.2456
@<TRIPOS>BOND
     1   111   112    1
     2   113   112    1
     3   113   114    2
     4   112   115    1
     5   115   116    1
     6   116   117    1
     7   117   118    1
     8   118   119    1
     9   106   105    2
    10   105   104    1
    11   125   126    1
    12   125   124    1
    13   121   120    1
    14   121   122    1
    15   121   124    1
    16   109   107    1
    17   128   126   ar
    18    25    24    1
    19   122   123    2
    20   126   127   ar
    21    24    23    1
    22   104   107    1
    23   104   103    1
    24   107   108    1
    25    23    22    1
    26   110   108    1
    27    22    21    1
    28    12    11    1
    29    21    18    1
    30   140   139   ar
    31    11     9   ar
    32    11    10   ar
    33     9     7   ar
    34   129   130    1
    35   138   139    1
    36   138   135    1
    37   139   141   ar
    38    10     8   ar
    39   133   130    1
    40    98    99    2
    41    98    97    1
    42    17    18    1
    43    17    15   am
    44   102   100    1
    45   132   131    2
    46     7     6   ar
    47    18    19    1
    48   130   131    1
    49   131   134   am
    50   100    97    1
    51   100   101    1
    52   134   135    1
    53   135   136    1
    54    14    15    1
    55    14    13    1
    56     8     6   ar
    57    97    96    1
    58    15    16    2
    59     6     5    1
    60    19    20    2
    61    19    26   am
    62   136   137    2
    63    26    27    1
    64    39    38    1
    65    30    27    1
    66     5     2    1
    67    96    89   am
    68    27    28    1
    69    90    89    2
    70     2     3    1
    71     2     1    1
    72    38    37    1
    73    63    64    1
    74    89    88    1
    75    67    68    1
    76    67    64    1
    77    47    45    1
    78    68    70   ar
    79    68    69   ar
    80    70    72   ar
    81     3     4    2
    82    69    71   ar
    83    31    28   am
    84    31    32    1
    85    72    71   ar
    86    28    29    2
    87    34    33    2
    88    64    65    1
    89    45    44    1
    90    94    95    1
    91    94    93    1
    92    36    37    1
    93    36    35    1
    94    92    93    1
    95    92    91    1
    96    35    32    1
    97    81    80    2
    98    88    91    1
    99    88    87    1
   100    32    33    1
   101    44    46    1
   102    44    41    1
   103    80    87   am
   104    80    79    1
   105    65    66    2
   106    82    79    1
   107    82    83    1
   108    84    83    1
   109    84    85    1
   110    62    60    1
   111    86    85    1
   112    40    41    1
   113    61    59    1
   114    79    78    1
   115    41    42    1
   116    60    59    1
   117    54    52    1
   118    77    74    1
   119    78    75   am
   120    53    52    1
   121    43    42    2
   122    59    56    1
   123    52    49    1
   124    75    74    1
   125    75    76    2
   126    74    73    1
   127    56    57    1
   128    56    55    1
   129    48    49    1
   130    49    50    1
   131    57    58    2
   132    50    51    2
