@<TRIPOS>MOLECULE
tmp/2yznC00.pdb
 179 166 0 0 0
SMALL
GASTEIGER

@<TRIPOS>ATOM
      1  N         16.8110   11.7110   -9.9890 N.3    13  GLU13      -0.1245
      2  CA        16.4800   11.6030  -11.4000 C.3    13  GLU13       0.1567
      3  C         15.9630   12.9380  -11.8970 C.2    13  GLU13       0.2260
      4  O         15.1660   13.0030  -12.8300 O.2    13  GLU13      -0.2867
      5  CB        15.4500   10.4930  -11.6210 C.3    13  GLU13       0.0388
      6  CG        15.9120    9.1230  -11.1070 C.3    13  GLU13       0.1160
      7  CD        15.1640    7.9550  -11.7410 C.2    13  GLU13       0.3649
      8  OE1       15.3480    7.7250  -12.9590 O.co2  13  GLU13      -0.2457
      9  OE2       14.3920    7.2710  -11.0240 O.co2  13  GLU13      -0.2457
     10  N          9.3480   -1.7110   -2.6990 N.3   116  LYS116     -0.1245
     11  CA         9.7770   -3.0140   -3.1750 C.3   116  LYS116      0.1561
     12  C          9.3470   -4.1840   -2.3010 C.2   116  LYS116      0.2260
     13  O          9.2670   -5.3070   -2.7850 O.2   116  LYS116     -0.2867
     14  CB        11.3000   -3.0330   -3.3450 C.3   116  LYS116      0.0271
     15  CG        11.8020   -2.2210   -4.5230 C.3   116  LYS116      0.0035
     16  CD        13.3000   -2.3500   -4.6770 C.3   116  LYS116      0.0206
     17  CE        13.7580   -1.9090   -6.0660 C.3   116  LYS116      0.1093
     18  NZ        13.4660   -0.4820   -6.3830 N.3   116  LYS116     -0.1314
     19  N         10.3600  -12.2120   -7.8200 N.3   131  VAL131     -0.1245
     20  CA        11.6330  -12.7660   -7.3890 C.3   131  VAL131      0.1561
     21  C         11.5880  -13.1640   -5.9180 C.2   131  VAL131      0.2260
     22  O         10.9360  -12.5070   -5.1030 O.2   131  VAL131     -0.2867
     23  CB        12.7710  -11.7410   -7.5600 C.3   131  VAL131      0.0252
     24  CG1       14.0810  -12.3480   -7.1200 C.3   131  VAL131      0.0019
     25  CG2       12.8570  -11.2820   -9.0100 C.3   131  VAL131      0.0019
     26  N         20.7080   -9.2220   -4.8520 N.3   151  PHE151     -0.1241
     27  CA        20.6760   -7.7580   -4.8370 C.3   151  PHE151      0.1605
     28  C         20.1150   -7.1760   -3.5520 C.2   151  PHE151      0.2264
     29  O         19.0610   -7.5990   -3.0790 O.2   151  PHE151     -0.2867
     30  CB        19.8440   -7.2450   -6.0160 C.3   151  PHE151      0.0534
     31  CG        20.4940   -7.4450   -7.3480 C.ar  151  PHE151     -0.0203
     32  CD1       21.1940   -6.4100   -7.9530 C.ar  151  PHE151     -0.0042
     33  CD2       20.4420   -8.6820   -7.9810 C.ar  151  PHE151     -0.0042
     34  CE1       21.8330   -6.6010   -9.1670 C.ar  151  PHE151     -0.0003
     35  CE2       21.0770   -8.8850   -9.1940 C.ar  151  PHE151     -0.0003
     36  CZ        21.7760   -7.8430   -9.7910 C.ar  151  PHE151     -0.0000
     37  N         18.7930   -3.7710   -2.1690 N.3   153  LYS153     -0.1245
     38  CA        18.3370   -2.4210   -2.5000 C.3   153  LYS153      0.1561
     39  C         17.5080   -1.8460   -1.3590 C.2   153  LYS153      0.2260
     40  O         16.8920   -2.5860   -0.5940 O.2   153  LYS153     -0.2867
     41  CB        17.4650   -2.4630   -3.7590 C.3   153  LYS153      0.0271
     42  CG        17.5560   -3.7740   -4.5330 C.3   153  LYS153      0.0035
     43  CD        16.5850   -3.8090   -5.7100 C.3   153  LYS153      0.0206
     44  CE        16.6920   -5.1270   -6.4710 C.3   153  LYS153      0.1093
     45  NZ        15.5580   -5.3220   -7.4170 N.3   153  LYS153     -0.1314
     46  N         15.6540    6.2580   -8.0830 N.3   159  SER159     -0.1202
     47  CA        16.9110    5.8820   -8.7240 C.3   159  SER159      0.2020
     48  C         17.4450    4.5560   -8.1920 C.2   159  SER159      0.2619
     49  O         16.6860    3.7460   -7.6590 O.2   159  SER159     -0.2717
     50  CB        17.9490    6.9860   -8.5140 C.3   159  SER159      0.2103
     51  OG        17.4280    8.2450   -8.9060 O.3   159  SER159     -0.2182
     52  N         18.7530    4.3480   -8.3300 N.am  160  SER160     -0.1951
     53  CA        19.3930    3.1140   -7.8830 C.3   160  SER160      0.1924
     54  C         20.4220    3.3470   -6.7810 C.2   160  SER160      0.2314
     55  O         21.5100    2.7740   -6.8120 O.2   160  SER160     -0.2863
     56  CB        20.0690    2.4190   -9.0690 C.3   160  SER160      0.2116
     57  OG        19.1520    2.1950  -10.1260 O.3   160  SER160     -0.2180
     58  N         21.9050    0.3740   -3.9140 N.3   163  ILE163     -0.1245
     59  CA        21.8070   -0.9470   -4.5300 C.3   163  ILE163      0.1561
     60  C         23.1770   -1.5750   -4.7410 C.2   163  ILE163      0.2260
     61  O         24.1700   -0.8700   -4.9090 O.2   163  ILE163     -0.2867
     62  CB        21.0840   -0.8750   -5.8900 C.3   163  ILE163      0.0252
     63  CG1       19.6220   -0.4810   -5.6720 C.3   163  ILE163      0.0019
     64  CG2       21.1670   -2.2150   -6.6060 C.3   163  ILE163      0.0019
     65  CD1       18.7870   -0.4510   -6.9400 C.3   163  ILE163      0.0001
     66  N         17.0990   -9.6670   -2.7360 N.3   189  GLU189     -0.1231
     67  CA        16.5250  -10.4880   -3.7950 C.3   189  GLU189      0.1699
     68  C         17.4730  -11.4790   -4.4480 C.2   189  GLU189      0.2592
     69  O         18.6080  -11.1460   -4.8070 O.2   189  GLU189     -0.2718
     70  CB        15.9560   -9.5940   -4.8960 C.3   189  GLU189      0.0402
     71  CG        14.7940   -8.7320   -4.4720 C.3   189  GLU189      0.1161
     72  CD        14.3660   -7.7850   -5.5730 C.2   189  GLU189      0.3649
     73  OE1       14.1640   -8.2740   -6.7100 O.co2 189  GLU189     -0.2457
     74  OE2       14.2310   -6.5650   -5.3010 O.co2 189  GLU189     -0.2457
     75  N         16.9870  -12.7000   -4.6200 N.am  190  LYS190     -0.1966
     76  CA        17.7830  -13.7100   -5.2730 C.3   190  LYS190      0.1728
     77  C         18.1080  -13.1580   -6.6560 C.2   190  LYS190      0.2616
     78  O         17.2080  -12.8360   -7.4240 O.2   190  LYS190     -0.2715
     79  CB        16.9940  -15.0100   -5.4030 C.3   190  LYS190      0.0311
     80  CG        17.7720  -16.0960   -6.1210 C.3   190  LYS190      0.0038
     81  CD        17.1680  -17.4700   -5.8940 C.3   190  LYS190      0.0206
     82  CE        18.2230  -18.5350   -6.1160 C.3   190  LYS190      0.1093
     83  NZ        19.4390  -18.2340   -5.2930 N.3   190  LYS190     -0.1314
     84  N         19.3920  -13.0150   -6.9580 N.am  191  ALA191     -0.1963
     85  CA        19.8100  -12.5080   -8.2570 C.3   191  ALA191      0.1728
     86  C         19.5800  -13.5980   -9.2980 C.2   191  ALA191      0.2616
     87  O         19.8450  -14.7740   -9.0460 O.2   191  ALA191     -0.2715
     88  CB        21.2850  -12.1140   -8.2220 C.3   191  ALA191      0.0334
     89  N         19.0720  -13.2030  -10.4600 N.am  192  LEU192     -0.1977
     90  CA        18.8090  -14.1440  -11.5380 C.3   192  LEU192      0.1596
     91  C         19.9340  -14.0280  -12.5560 C.2   192  LEU192      0.2287
     92  O         20.3620  -12.9230  -12.8890 O.2   192  LEU192     -0.2864
     93  CB        17.4760  -13.8160  -12.2060 C.3   192  LEU192      0.0297
     94  CG        16.3100  -13.6940  -11.2270 C.3   192  LEU192      0.0022
     95  CD1       15.0850  -13.1870  -11.9600 C.3   192  LEU192      0.0001
     96  CD2       16.0500  -15.0380  -10.5620 C.3   192  LEU192      0.0001
     97  N         19.7860  -13.8370  -17.2280 N.3   195  VAL195     -0.1245
     98  CA        18.4690  -13.2310  -17.0750 C.3   195  VAL195      0.1561
     99  C         18.1530  -12.2900  -18.2150 C.2   195  VAL195      0.2260
    100  O         19.0420  -11.6340  -18.7480 O.2   195  VAL195     -0.2867
    101  CB        18.3640  -12.4350  -15.7580 C.3   195  VAL195      0.0252
    102  CG1       19.3890  -11.3050  -15.7420 C.3   195  VAL195      0.0019
    103  CG2       16.9580  -11.8890  -15.5960 C.3   195  VAL195      0.0019
    104  N         15.5410   -9.0950  -19.5970 N.3   197  GLU197     -0.1245
    105  CA        14.6600   -8.0290  -19.1560 C.3   197  GLU197      0.1567
    106  C         13.5700   -7.7410  -20.1690 C.2   197  GLU197      0.2260
    107  O         13.8490   -7.4070  -21.3170 O.2   197  GLU197     -0.2867
    108  CB        15.4820   -6.7690  -18.8760 C.3   197  GLU197      0.0388
    109  CG        16.1540   -6.8150  -17.5150 C.3   197  GLU197      0.1160
    110  CD        17.2380   -5.7770  -17.3420 C.2   197  GLU197      0.3649
    111  OE1       16.9730   -4.5780  -17.5900 O.co2 197  GLU197     -0.2457
    112  OE2       18.3580   -6.1680  -16.9490 O.co2 197  GLU197     -0.2457
    113  N         21.7620   -4.6890  -23.2050 N.3   218  TYR218     -0.1241
    114  CA        22.8430   -3.7450  -22.9680 C.3   218  TYR218      0.1605
    115  C         24.0090   -4.0750  -23.8900 C.2   218  TYR218      0.2264
    116  O         24.3950   -5.2340  -24.0110 O.2   218  TYR218     -0.2867
    117  CB        23.2890   -3.8260  -21.5080 C.3   218  TYR218      0.0534
    118  CG        22.1750   -3.5030  -20.5410 C.ar  218  TYR218     -0.0201
    119  CD1       21.8840   -2.1830  -20.2000 C.ar  218  TYR218     -0.0009
    120  CD2       21.3710   -4.5150  -20.0150 C.ar  218  TYR218     -0.0009
    121  CE1       20.8190   -1.8760  -19.3620 C.ar  218  TYR218      0.0417
    122  CE2       20.3040   -4.2220  -19.1770 C.ar  218  TYR218      0.0417
    123  CZ        20.0290   -2.8980  -18.8510 C.ar  218  TYR218      0.1957
    124  OH        18.9660   -2.6010  -18.0130 O.3   218  TYR218     -0.2866
    125  N          4.9160    1.4350  -16.5090 N.3   258  ARG258     -0.1245
    126  CA         5.8090    0.6360  -17.3150 C.3   258  ARG258      0.1563
    127  C          6.0100   -0.5210  -16.3480 C.2   258  ARG258      0.2260
    128  O          6.4170   -0.3100  -15.2090 O.2   258  ARG258     -0.2867
    129  CB         7.1490    1.3160  -17.5690 C.3   258  ARG258      0.0307
    130  CG         8.0230    0.4700  -18.4750 C.3   258  ARG258      0.0489
    131  CD         9.4000    1.0270  -18.6390 C.3   258  ARG258      0.2205
    132  NE        10.2770    0.6920  -17.5310 N.pl3 258  ARG258     -0.0865
    133  CZ        11.0520    1.5770  -16.9110 C.cat 258  ARG258      0.5346
    134  NH1       11.8360    1.1970  -15.9070 N.pl3 258  ARG258      0.1354
    135  NH2       11.0310    2.8500  -17.2840 N.pl3 258  ARG258      0.1354
    136  N          8.0040   -3.8700  -15.5260 N.3   260  ASP260     -0.1239
    137  CA         9.2210   -4.5930  -15.8820 C.3   260  ASP260      0.1674
    138  C          9.1520   -6.0510  -15.4540 C.2   260  ASP260      0.2266
    139  O          8.5930   -6.3620  -14.3990 O.2   260  ASP260     -0.2867
    140  CB        10.4210   -3.9200  -15.2140 C.3   260  ASP260      0.1410
    141  CG        10.5360   -2.4410  -15.5700 C.2   260  ASP260      0.3668
    142  OD1       11.2000   -1.6900  -14.8140 O.co2 260  ASP260     -0.2456
    143  OD2        9.9730   -2.0360  -16.6140 O.co2 260  ASP260     -0.2456
    144  N         11.2780  -10.1610  -15.4880 N.3   262  PHE262     -0.1241
    145  CA        12.5370  -10.8810  -15.5990 C.3   262  PHE262      0.1605
    146  C         12.1870  -12.2230  -16.2080 C.2   262  PHE262      0.2264
    147  O         11.1090  -12.7640  -15.9600 O.2   262  PHE262     -0.2867
    148  CB        13.2020  -11.1020  -14.2370 C.3   262  PHE262      0.0534
    149  CG        13.8860   -9.8830  -13.6710 C.ar  262  PHE262     -0.0203
    150  CD1       14.7010   -9.0920  -14.4660 C.ar  262  PHE262     -0.0042
    151  CD2       13.7430   -9.5580  -12.3290 C.ar  262  PHE262     -0.0042
    152  CE1       15.3700   -7.9940  -13.9320 C.ar  262  PHE262     -0.0003
    153  CE2       14.4050   -8.4670  -11.7870 C.ar  262  PHE262     -0.0003
    154  CZ        15.2230   -7.6800  -12.5900 C.ar  262  PHE262     -0.0000
    155  N          9.1500   -7.6750  -11.9090 N.3   271  ASN271     -0.1225
    156  CA        10.1020   -6.9220  -11.1210 C.3   271  ASN271      0.1785
    157  C          9.4590   -5.7210  -10.4680 C.2   271  ASN271      0.2597
    158  O          9.4920   -5.5850   -9.2430 O.2   271  ASN271     -0.2718
    159  CB        11.2640   -6.4710  -11.9910 C.3   271  ASN271      0.1169
    160  CG        12.2940   -5.6820  -11.2130 C.2   271  ASN271      0.2627
    161  OD1       12.4440   -5.8580  -10.0060 O.2   271  ASN271     -0.2716
    162  ND2       13.0260   -4.8200  -11.9060 N.am  271  ASN271     -0.0877
    163  N          8.8650   -4.8450  -11.2680 N.am  272  GLU272     -0.1979
    164  CA         8.2260   -3.6700  -10.6900 C.3   272  GLU272      0.1602
    165  C          7.3860   -2.8610  -11.6640 C.2   272  GLU272      0.2287
    166  O          7.5970   -2.9000  -12.8760 O.2   272  GLU272     -0.2864
    167  CB         9.2820   -2.7470  -10.0900 C.3   272  GLU272      0.0415
    168  CG        10.1720   -2.1230  -11.1340 C.3   272  GLU272      0.1163
    169  CD        11.1760   -1.1480  -10.5530 C.2   272  GLU272      0.3649
    170  OE1       11.8900   -0.5090  -11.3440 O.co2 272  GLU272     -0.2457
    171  OE2       11.2620   -1.0190   -9.3140 O.co2 272  GLU272     -0.2457
    172  N          6.3360    0.8820  -12.7610 N.3   274  ASN274     -0.1240
    173  CA         6.7700    2.2620  -12.6510 C.3   274  ASN274      0.1653
    174  C          5.5790    3.1550  -13.0290 C.2   274  ASN274      0.2266
    175  O          5.1730    3.2170  -14.1910 O.2   274  ASN274     -0.2867
    176  CB         7.9520    2.5170  -13.5830 C.3   274  ASN274      0.1155
    177  CG         9.1970    1.7620  -13.1620 C.2   274  ASN274      0.2627
    178  OD1        9.8030    2.0610  -12.1210 O.2   274  ASN274     -0.2716
    179  ND2        9.5880    0.7660  -13.9650 N.am  274  ASN274     -0.0877
@<TRIPOS>BOND
     1   116   115    2
     2   115   114    1
     3   113   114    1
     4   114   117    1
     5   117   118    1
     6   107   106    2
     7   118   119   ar
     8   118   120   ar
     9   119   121   ar
    10   106   105    1
    11   120   122   ar
    12   104   105    1
    13   121   123   ar
    14   122   123   ar
    15   105   108    1
    16   108   109    1
    17   123   124    1
    18   100    99    2
    19   131   130    1
    20   131   132    1
    21   130   129    1
    22    99    98    1
    23   111   110   ar
    24   129   126    1
    25   132   133    2
    26   109   110    1
    27   110   112   ar
    28   126   125    1
    29   126   127    1
    30   135   133    1
    31    97    98    1
    32    98   101    1
    33   133   134    1
    34   143   141   ar
    35   127   128    2
    36   146   147    2
    37   146   145    1
    38   137   136    1
    39   137   138    1
    40   137   140    1
    41   101   102    1
    42   101   103    1
    43   145   144    1
    44   145   148    1
    45   141   140    1
    46   141   142   ar
    47   138   139    2
    48   150   152   ar
    49   150   149   ar
    50   148   149    1
    51   175   174    2
    52   179   177   am
    53   152   154   ar
    54   149   151   ar
    55   176   177    1
    56   176   173    1
    57   177   178    2
    58   174   173    1
    59     8     7   ar
    60    92    91    2
    61   166   165    2
    62     4     3    2
    63   172   173    1
    64   154   153   ar
    65    91    90    1
    66   151   153   ar
    67    93    90    1
    68    93    94    1
    69   159   160    1
    70   159   156    1
    71    95    94    1
    72   155   156    1
    73   162   160   am
    74     3     2    1
    75     7     6    1
    76     7     9   ar
    77   165   164    1
    78     5     2    1
    79     5     6    1
    80    90    89    1
    81     2     1    1
    82   170   169   ar
    83   163   164    1
    84   163   157   am
    85    94    96    1
    86   160   161    2
    87   168   169    1
    88   168   167    1
    89   156   157    1
    90   164   167    1
    91   169   171   ar
    92   157   158    2
    93    89    86   am
    94    57    56    1
    95    36    35   ar
    96    36    34   ar
    97    86    87    2
    98    86    85    1
    99    35    33   ar
   100    34    32   ar
   101    56    53    1
   102    25    23    1
   103    51    50    1
   104    47    50    1
   105    47    48    1
   106    47    46    1
   107    52    48   am
   108    52    53    1
   109    85    88    1
   110    85    84    1
   111    48    49    2
   112    33    31   ar
   113    32    31   ar
   114    53    54    1
   115    19    20    1
   116    23    20    1
   117    23    24    1
   118    78    77    2
   119    45    44    1
   120    20    21    1
   121    31    30    1
   122    84    77   am
   123    65    63    1
   124    55    54    2
   125    73    72   ar
   126    77    76    1
   127    64    62    1
   128    44    43    1
   129    18    17    1
   130    80    81    1
   131    80    79    1
   132    82    81    1
   133    82    83    1
   134    17    16    1
   135    30    27    1
   136    21    22    2
   137    62    63    1
   138    62    59    1
   139    43    42    1
   140    72    74   ar
   141    72    71    1
   142    79    76    1
   143    76    75    1
   144    61    60    2
   145    70    71    1
   146    70    67    1
   147    26    27    1
   148    27    28    1
   149    69    68    2
   150    60    59    1
   151    16    15    1
   152    75    68   am
   153    42    41    1
   154    59    58    1
   155    15    14    1
   156    68    67    1
   157    67    66    1
   158    41    38    1
   159    28    29    2
   160    14    11    1
   161    11    10    1
   162    11    12    1
   163    13    12    2
   164    38    37    1
   165    38    39    1
   166    39    40    2
