@<TRIPOS>MOLECULE
tmp/2yzoB00.pdb
 90 82 0 0 0
SMALL
GASTEIGER

@<TRIPOS>ATOM
      1  N        -15.0490   10.0100   13.9530 N.3    20  ASP20      -0.1239
      2  CA       -15.6590    9.1440   14.9580 C.3    20  ASP20       0.1674
      3  C        -16.2970    8.0380   14.1340 C.2    20  ASP20       0.2266
      4  O        -17.5280    7.9790   13.9680 O.2    20  ASP20      -0.2867
      5  CB       -16.7210    9.8920   15.7400 C.3    20  ASP20       0.1410
      6  CG       -17.2620    9.0770   16.8890 C.2    20  ASP20       0.3668
      7  OD1      -17.1530    7.8320   16.8480 O.co2  20  ASP20      -0.2456
      8  OD2      -17.8170    9.6840   17.8140 O.co2  20  ASP20      -0.2456
      9  N        -16.6390    4.6370   14.4590 N.3    22  LEU22      -0.1231
     10  CA       -17.6510    3.7580   14.9240 C.3    22  LEU22       0.1693
     11  C        -18.7890    4.5840   15.4020 C.2    22  LEU22       0.2592
     12  O        -18.8820    5.0730   16.5300 O.2    22  LEU22      -0.2718
     13  CB       -17.1190    2.6970   15.8850 C.3    22  LEU22       0.0284
     14  CG       -16.6190    1.6480   14.8660 C.3    22  LEU22       0.0019
     15  CD1      -16.0160    0.4440   15.5630 C.3    22  LEU22       0.0001
     16  CD2      -17.8080    1.2150   13.9570 C.3    22  LEU22       0.0001
     17  N        -19.5460    4.8570   14.3490 N.am   23  ARG23      -0.1966
     18  CA       -20.7950    5.5390   14.3060 C.3    23  ARG23       0.1729
     19  C        -21.0030    7.0450   14.2660 C.2    23  ARG23       0.2616
     20  O        -21.5280    7.4900   13.2670 O.2    23  ARG23      -0.2715
     21  CB       -21.6920    4.8140   15.3000 C.3    23  ARG23       0.0348
     22  CG       -21.3760    3.2920   15.1840 C.3    23  ARG23       0.0492
     23  CD       -22.4640    2.3740   15.6870 C.3    23  ARG23       0.2205
     24  NE       -22.8070    2.6820   17.0620 N.pl3  23  ARG23      -0.0865
     25  CZ       -23.9320    2.2920   17.6520 C.cat  23  ARG23       0.5346
     26  NH1      -24.8190    1.5720   16.9790 N.pl3  23  ARG23       0.1354
     27  NH2      -24.1750    2.6370   18.9100 N.pl3  23  ARG23       0.1354
     28  N        -20.5910    7.8600   15.2370 N.am   24  ALA24      -0.1977
     29  CA       -20.9350    9.2860   15.0910 C.3    24  ALA24       0.1597
     30  C        -20.7270    9.9030   13.7080 C.2    24  ALA24       0.2287
     31  O        -21.6930   10.3420   13.0840 O.2    24  ALA24      -0.2864
     32  CB       -20.2400   10.1490   16.1410 C.3    24  ALA24       0.0319
     33  N        -27.1660    8.0160   21.3150 N.3    61  GLU61      -0.1245
     34  CA       -26.8870    6.8530   22.1250 C.3    61  GLU61       0.1567
     35  C        -26.2920    7.2510   23.4550 C.2    61  GLU61       0.2260
     36  O        -25.8490    8.3860   23.6560 O.2    61  GLU61      -0.2867
     37  CB       -25.8820    5.9460   21.4090 C.3    61  GLU61       0.0388
     38  CG       -24.4860    6.5890   21.2490 C.3    61  GLU61       0.1160
     39  CD       -23.6400    6.5610   22.5230 C.2    61  GLU61       0.3649
     40  OE1      -22.7440    7.4220   22.6660 O.co2  61  GLU61      -0.2457
     41  OE2      -23.8510    5.6740   23.3740 O.co2  61  GLU61      -0.2457
     42  N        -24.0260    3.1550   23.9410 N.3    64  ALA64      -0.1245
     43  CA       -24.1810    2.6610   22.5700 C.3    64  ALA64       0.1562
     44  C        -25.6130    2.2760   22.1900 C.2    64  ALA64       0.2260
     45  O        -25.8700    1.8470   21.0610 O.2    64  ALA64      -0.2867
     46  CB       -23.2420    1.4770   22.3360 C.3    64  ALA64       0.0290
     47  N        -27.7710    5.1220   17.2820 N.3    74  ASN74      -0.1240
     48  CA       -26.5950    5.6120   16.5640 C.3    74  ASN74       0.1653
     49  C        -26.0340    4.5860   15.5790 C.2    74  ASN74       0.2266
     50  O        -24.8280    4.5370   15.3300 O.2    74  ASN74      -0.2867
     51  CB       -25.5120    6.0560   17.5560 C.3    74  ASN74       0.1155
     52  CG       -24.4060    6.8720   16.8920 C.2    74  ASN74       0.2627
     53  OD1      -24.6350    7.5640   15.8900 O.2    74  ASN74      -0.2716
     54  ND2      -23.2040    6.8080   17.4590 N.am   74  ASN74      -0.0877
     55  N        -24.3960   12.0020   21.2650 N.3    93  THR93      -0.1203
     56  CA       -23.6440   10.8060   21.5940 C.3    93  THR93       0.1994
     57  C        -22.7650   11.1180   22.7930 C.2    93  THR93       0.2618
     58  O        -22.6040   12.2820   23.1690 O.2    93  THR93      -0.2717
     59  CB       -22.7730   10.3280   20.4120 C.3    93  THR93       0.1784
     60  OG1      -21.8100   11.3350   20.0720 O.3    93  THR93      -0.2211
     61  CG2      -23.6530   10.0350   19.2050 C.3    93  THR93       0.0376
     62  N        -22.2090   10.0750   23.3960 N.am   94  THR94      -0.1952
     63  CA       -21.3620   10.2350   24.5640 C.3    94  THR94       0.1897
     64  C        -20.1610   11.1120   24.2310 C.2    94  THR94       0.2313
     65  O        -19.2470   10.6860   23.5240 O.2    94  THR94      -0.2863
     66  CB       -20.8700    8.8660   25.0700 C.3    94  THR94       0.1794
     67  OG1      -21.9840    7.9690   25.1750 O.3    94  THR94      -0.2208
     68  CG2      -20.2200    9.0080   26.4420 C.3    94  THR94       0.0378
     69  N        -20.0980   13.7050   22.3350 N.3    96  GLY96      -0.1225
     70  CA       -20.0940   14.1380   20.9440 C.3    96  GLY96       0.1811
     71  C        -19.7690   15.6040   20.7250 C.2    96  GLY96       0.2280
     72  O        -18.8880   15.9440   19.9340 O.2    96  GLY96      -0.2866
     73  N        -13.8470   -0.8240   21.2090 N.3   187  HIS187     -0.1241
     74  CA       -15.1980   -0.3290   20.9990 C.3   187  HIS187      0.1621
     75  C        -15.9360   -1.1880   19.9710 C.2   187  HIS187      0.2264
     76  O        -17.1450   -1.4030   20.0920 O.2   187  HIS187     -0.2867
     77  CB       -15.1960    1.1300   20.5530 C.3   187  HIS187      0.0745
     78  CG       -16.5680    1.7200   20.4520 C.ar  187  HIS187      0.0817
     79  ND1      -17.4600    1.7110   21.5040 N.ar  187  HIS187     -0.2268
     80  CD2      -17.2060    2.3250   19.4210 C.ar  187  HIS187      0.1154
     81  CE1      -18.5890    2.2850   21.1250 C.ar  187  HIS187      0.1986
     82  NE2      -18.4610    2.6660   19.8650 N.ar  187  HIS187     -0.2212
     83  N        -19.5630   -3.0160   20.5610 N.3   191  LEU191     -0.1245
     84  CA       -20.6830   -2.9250   19.6330 C.3   191  LEU191      0.1561
     85  C        -21.1170   -4.3190   19.1820 C.2   191  LEU191      0.2260
     86  O        -22.3100   -4.5920   19.0710 O.2   191  LEU191     -0.2867
     87  CB       -20.3200   -2.0530   18.4110 C.3   191  LEU191      0.0270
     88  CG       -20.1580   -0.5430   18.6770 C.3   191  LEU191      0.0019
     89  CD1      -19.8320    0.2130   17.3840 C.3   191  LEU191      0.0001
     90  CD2      -21.4400    0.0090   19.2710 C.3   191  LEU191      0.0001
@<TRIPOS>BOND
     1    31    30    2
     2    20    19    2
     3    30    29    1
     4     1     2    1
     5    16    14    1
     6     4     3    2
     7     3     2    1
     8    19    18    1
     9    19    28   am
    10    18    17    1
    11    18    21    1
    12    17    11   am
    13     9    10    1
    14    14    15    1
    15    14    13    1
    16    10    11    1
    17    10    13    1
    18     2     5    1
    19    29    28    1
    20    29    32    1
    21    22    21    1
    22    22    23    1
    23    50    49    2
    24    11    12    2
    25    49    48    1
    26    23    24    1
    27     5     6    1
    28    53    52    2
    29    48    47    1
    30    48    51    1
    31     7     6   ar
    32     6     8   ar
    33    52    54   am
    34    52    51    1
    35    26    25    1
    36    24    25    2
    37    89    88    1
    38    25    27    1
    39    87    88    1
    40    87    84    1
    41    88    90    1
    42    86    85    2
    43    85    84    1
    44    61    59    1
    45    80    82   ar
    46    80    78   ar
    47    84    83    1
    48    82    81   ar
    49    72    71    2
    50    75    76    2
    51    75    74    1
    52    60    59    1
    53    59    56    1
    54    78    77    1
    55    78    79   ar
    56    77    74    1
    57    71    70    1
    58    70    69    1
    59    74    73    1
    60    45    44    2
    61    81    79   ar
    62    38    37    1
    63    38    39    1
    64    55    56    1
    65    33    34    1
    66    37    34    1
    67    56    57    1
    68    34    35    1
    69    44    43    1
    70    46    43    1
    71    39    40   ar
    72    39    41   ar
    73    43    42    1
    74    57    58    2
    75    57    62   am
    76    62    63    1
    77    35    36    2
    78    65    64    2
    79    64    63    1
    80    63    66    1
    81    66    67    1
    82    66    68    1
