@<TRIPOS>MOLECULE
tmp/2yzqA00.pdb
 151 146 0 0 0
SMALL
GASTEIGER

@<TRIPOS>ATOM
      1  N         31.2970   -4.1250   12.8260 N.3   136  MET136     -0.1230
      2  CA        30.2400   -4.9710   12.3030 C.3   136  MET136      0.1702
      3  C         30.7390   -6.3960   12.0990 C.2   136  MET136      0.2592
      4  O         29.9420   -7.3080   11.8880 O.2   136  MET136     -0.2718
      5  CB        29.7330   -4.4130   10.9760 C.3   136  MET136      0.0401
      6  CG        29.0660   -3.0610   11.1090 C.3   136  MET136      0.0596
      7  SD        28.3820   -2.5390    9.5370 S.3   136  MET136     -0.1393
      8  CE        27.0200   -3.6670    9.3930 C.3   136  MET136      0.0692
      9  N         32.0520   -6.5920   12.1750 N.am  137  ALA137     -0.1980
     10  CA        32.6120   -7.9240   11.9780 C.3   137  ALA137      0.1597
     11  C         33.7040   -8.2850   12.9660 C.2   137  ALA137      0.2287
     12  O         34.3770   -7.4120   13.5170 O.2   137  ALA137     -0.2864
     13  CB        33.1580   -8.0530   10.5640 C.3   137  ALA137      0.0319
     14  N         36.9230  -14.1550    8.9100 N.3   150  ILE150     -0.1231
     15  CA        36.2080  -13.0010    9.4260 C.3   150  ILE150      0.1692
     16  C         34.7300  -13.3610    9.3840 C.2   150  ILE150      0.2592
     17  O         34.3100  -14.1530    8.5440 O.2   150  ILE150     -0.2718
     18  CB        36.5400  -11.7450    8.5740 C.3   150  ILE150      0.0266
     19  CG1       35.9310  -10.4960    9.2140 C.3   150  ILE150      0.0019
     20  CG2       36.0810  -11.9460    7.1300 C.3   150  ILE150      0.0020
     21  CD1       36.6320   -9.2150    8.8020 C.3   150  ILE150      0.0001
     22  N         33.9410  -12.8040   10.2950 N.am  151  VAL151     -0.1966
     23  CA        32.5190  -13.1280   10.3320 C.3   151  VAL151      0.1727
     24  C         31.6530  -11.9560   10.7780 C.2   151  VAL151      0.2616
     25  O         32.0690  -11.1590   11.6190 O.2   151  VAL151     -0.2715
     26  CB        32.2620  -14.3320   11.2870 C.3   151  VAL151      0.0290
     27  CG1       32.6350  -13.9630   12.7320 C.3   151  VAL151      0.0023
     28  CG2       30.8090  -14.7650   11.2110 C.3   151  VAL151      0.0023
     29  N         30.4630  -11.8400   10.1900 N.am  152  ASP152     -0.1971
     30  CA        29.5280  -10.7920   10.5810 C.3   152  ASP152      0.1709
     31  C         28.1140  -11.3490   10.6520 C.2   152  ASP152      0.2293
     32  O         27.8950  -12.5430   10.4220 O.2   152  ASP152     -0.2864
     33  CB        29.6230   -9.5490    9.6670 C.3   152  ASP152      0.1436
     34  CG        28.9450   -9.7150    8.3180 C.2   152  ASP152      0.3671
     35  OD1       28.3690  -10.7810    8.0250 O.co2 152  ASP152     -0.2456
     36  OD2       28.9910   -8.7370    7.5420 O.co2 152  ASP152     -0.2456
     37  N         25.4860  -11.1490    8.7550 N.3   154  THR154     -0.1203
     38  CA        24.9500  -11.7710    7.5470 C.3   154  THR154      0.1994
     39  C         25.4090  -13.2130    7.3520 C.2   154  THR154      0.2617
     40  O         24.7370  -13.9960    6.6730 O.2   154  THR154     -0.2717
     41  CB        25.3230  -10.9620    6.2830 C.3   154  THR154      0.1784
     42  OG1       26.7060  -11.1620    5.9690 O.3   154  THR154     -0.2211
     43  CG2       25.0620   -9.4790    6.5080 C.3   154  THR154      0.0376
     44  N         26.5420  -13.5760    7.9460 N.am  155  ASP155     -0.1973
     45  CA        27.0530  -14.9340    7.8040 C.3   155  ASP155      0.1709
     46  C         26.2080  -15.9670    8.5360 C.2   155  ASP155      0.2293
     47  O         26.3170  -17.1640    8.2800 O.2   155  ASP155     -0.2864
     48  CB        28.5070  -15.0080    8.2740 C.3   155  ASP155      0.1436
     49  CG        29.4360  -14.2210    7.3810 C.2   155  ASP155      0.3671
     50  OD1       29.2090  -14.2220    6.1510 O.co2 155  ASP155     -0.2456
     51  OD2       30.3960  -13.6090    7.8930 O.co2 155  ASP155     -0.2456
     52  N         24.2730  -18.4760    6.6270 N.3   158  ARG158     -0.1245
     53  CA        24.9700  -19.5770    5.9690 C.3   158  ARG158      0.1563
     54  C         24.7000  -20.8730    6.7190 C.2   158  ARG158      0.2260
     55  O         25.0870  -21.9530    6.2680 O.2   158  ARG158     -0.2867
     56  CB        26.4770  -19.3220    5.9300 C.3   158  ARG158      0.0307
     57  CG        26.9160  -18.2760    4.9280 C.3   158  ARG158      0.0489
     58  CD        28.3790  -17.9290    5.1540 C.3   158  ARG158      0.2205
     59  NE        28.9020  -17.0230    4.1410 N.pl3 158  ARG158     -0.0865
     60  CZ        30.0970  -16.4470    4.2160 C.cat 158  ARG158      0.5346
     61  NH1       30.8780  -16.6860    5.2600 N.pl3 158  ARG158      0.1354
     62  NH2       30.5140  -15.6410    3.2470 N.pl3 158  ARG158      0.1354
     63  N         33.9700  -16.3490    6.7290 N.3   174  THR174     -0.1218
     64  CA        34.5110  -16.0680    5.4050 C.3   174  THR174      0.1862
     65  C         36.0190  -16.2950    5.5490 C.2   174  THR174      0.2287
     66  O         36.6720  -15.6590    6.3800 O.2   174  THR174     -0.2866
     67  CB        34.2390  -14.6070    4.9980 C.3   174  THR174      0.1770
     68  OG1       32.8240  -14.3980    4.8660 O.3   174  THR174     -0.2211
     69  CG2       34.9360  -14.2760    3.6880 C.3   174  THR174      0.0375
     70  N         38.5120  -16.0170    3.0000 N.3   176  ASP176     -0.1225
     71  CA        39.3720  -15.1140    2.2480 C.3   176  ASP176      0.1805
     72  C         39.1500  -13.7020    2.7590 C.2   176  ASP176      0.2598
     73  O         38.2100  -13.0210    2.3540 O.2   176  ASP176     -0.2718
     74  CB        39.0680  -15.1910    0.7520 C.3   176  ASP176      0.1424
     75  CG        40.0140  -14.3410   -0.0730 C.2   176  ASP176      0.3668
     76  OD1       41.1890  -14.2100    0.3260 O.co2 176  ASP176     -0.2456
     77  OD2       39.5910  -13.8140   -1.1210 O.co2 176  ASP176     -0.2456
     78  N         40.0300  -13.2690    3.6530 N.am  177  VAL177     -0.1966
     79  CA        39.9140  -11.9520    4.2620 C.3   177  VAL177      0.1727
     80  C         40.6070  -10.8490    3.4690 C.2   177  VAL177      0.2616
     81  O         41.7710  -10.9800    3.0650 O.2   177  VAL177     -0.2715
     82  CB        40.4880  -11.9720    5.6970 C.3   177  VAL177      0.0290
     83  CG1       40.0810  -10.7140    6.4420 C.3   177  VAL177      0.0023
     84  CG2       39.9930  -13.2080    6.4380 C.3   177  VAL177      0.0023
     85  N         39.8640   -9.7720    3.2290 N.am  178  ILE178     -0.1977
     86  CA        40.3750   -8.6100    2.5210 C.3   178  ILE178      0.1596
     87  C         41.0340   -7.7580    3.5980 C.2   178  ILE178      0.2287
     88  O         40.3580   -7.2910    4.5190 O.2   178  ILE178     -0.2864
     89  CB        39.2360   -7.8130    1.8710 C.3   178  ILE178      0.0276
     90  CG1       38.4310   -8.7280    0.9440 C.3   178  ILE178      0.0022
     91  CG2       39.8080   -6.6220    1.1190 C.3   178  ILE178      0.0022
     92  CD1       39.2660   -9.3970   -0.1310 C.3   178  ILE178      0.0001
     93  N         33.8700   -4.6690   -2.3140 N.3   196  TYR196     -0.1227
     94  CA        33.3960   -5.8610   -1.6250 C.3   196  TYR196      0.1736
     95  C         32.1890   -5.6220   -0.7190 C.2   196  TYR196      0.2596
     96  O         31.6720   -6.5630   -0.1090 O.2   196  TYR196     -0.2718
     97  CB        34.5440   -6.4580   -0.8090 C.3   196  TYR196      0.0548
     98  CG        35.7380   -6.8500   -1.6510 C.ar  196  TYR196     -0.0200
     99  CD1       35.6820   -7.9550   -2.4990 C.ar  196  TYR196     -0.0009
    100  CD2       36.9170   -6.1060   -1.6150 C.ar  196  TYR196     -0.0009
    101  CE1       36.7730   -8.3120   -3.2900 C.ar  196  TYR196      0.0417
    102  CE2       38.0130   -6.4500   -2.4010 C.ar  196  TYR196      0.0417
    103  CZ        37.9340   -7.5550   -3.2360 C.ar  196  TYR196      0.1957
    104  OH        39.0160   -7.8990   -4.0150 O.3   196  TYR196     -0.2866
    105  N         31.7410   -4.3710   -0.6430 N.am  197  SER197     -0.1938
    106  CA        30.6050   -3.9980    0.1950 C.3   197  SER197      0.2055
    107  C         30.8360   -4.4190    1.6390 C.2   197  SER197      0.2643
    108  O         29.9840   -5.0530    2.2590 O.2   197  SER197     -0.2714
    109  CB        29.3140   -4.6290   -0.3280 C.3   197  SER197      0.2130
    110  OG        28.9430   -4.0570   -1.5750 O.3   197  SER197     -0.2179
    111  N         32.0040   -4.0680    2.1600 N.am  198  ILE198     -0.1963
    112  CA        32.3580   -4.3990    3.5350 C.3   198  ILE198      0.1727
    113  C         32.6820   -3.1120    4.2850 C.2   198  ILE198      0.2616
    114  O         33.2030   -2.1560    3.7060 O.2   198  ILE198     -0.2715
    115  CB        33.5630   -5.3600    3.5810 C.3   198  ILE198      0.0290
    116  CG1       34.7110   -4.7930    2.7430 C.3   198  ILE198      0.0022
    117  CG2       33.1350   -6.7440    3.0780 C.3   198  ILE198      0.0023
    118  CD1       35.9070   -5.7280    2.6110 C.3   198  ILE198      0.0001
    119  N         32.3710   -3.0970    5.5780 N.am  199  GLU199     -0.1963
    120  CA        32.5840   -1.9140    6.4030 C.3   199  GLU199      0.1733
    121  C         33.8940   -1.8850    7.1830 C.2   199  GLU199      0.2616
    122  O         34.1580   -0.9240    7.9050 O.2   199  GLU199     -0.2715
    123  CB        31.4170   -1.7550    7.3820 C.3   199  GLU199      0.0429
    124  CG        30.0520   -1.5840    6.7090 C.3   199  GLU199      0.1163
    125  CD        29.3340   -2.8980    6.4320 C.2   199  GLU199      0.3649
    126  OE1       29.9730   -3.9740    6.4540 O.co2 199  GLU199     -0.2457
    127  OE2       28.1120   -2.8480    6.1750 O.co2 199  GLU199     -0.2457
    128  N         34.7150   -2.9210    7.0420 N.am  200  GLN200     -0.1963
    129  CA        35.9740   -2.9610    7.7770 C.3   200  GLN200      0.1733
    130  C         36.9940   -3.9310    7.2030 C.2   200  GLN200      0.2616
    131  O         36.6360   -4.9810    6.6670 O.2   200  GLN200     -0.2715
    132  CB        35.7210   -3.3490    9.2350 C.3   200  GLN200      0.0408
    133  CG        35.1610   -4.7620    9.4140 C.3   200  GLN200      0.0908
    134  CD        33.7390   -4.8970    8.9110 C.2   200  GLN200      0.2608
    135  OE1       32.8390   -4.1960    9.3730 O.2   200  GLN200     -0.2717
    136  NE2       33.5250   -5.8150    7.9670 N.am  200  GLN200     -0.0878
    137  N         38.2680   -3.5700    7.3300 N.am  201  LEU201     -0.1964
    138  CA        39.3640   -4.4170    6.8700 C.3   201  LEU201      0.1713
    139  C         40.3610   -4.6260    7.9920 C.2   201  LEU201      0.2458
    140  O         40.8270   -3.6640    8.6000 O.2   201  LEU201     -0.2730
    141  CB        40.1300   -3.7880    5.7000 C.3   201  LEU201      0.0310
    142  CG        39.5510   -3.7580    4.2840 C.3   201  LEU201      0.0022
    143  CD1       38.3080   -2.9010    4.2430 C.3   201  LEU201      0.0001
    144  CD2       40.6080   -3.2180    3.3260 C.3   201  LEU201      0.0001
    145  N         40.6720   -5.8870    8.3120 N.am  202  PRO202     -0.2727
    146  CA        41.6530   -6.1090    9.3750 C.3   202  PRO202      0.1402
    147  C         42.9700   -5.4830    8.9040 C.2   202  PRO202      0.2269
    148  O         43.2820   -5.5080    7.7130 O.2   202  PRO202     -0.2865
    149  CB        41.7490   -7.6260    9.4340 C.3   202  PRO202      0.0296
    150  CG        40.3490   -8.0590    9.1230 C.3   202  PRO202      0.0237
    151  CD        39.9560   -7.1340    7.9820 C.3   202  PRO202      0.0939
@<TRIPOS>BOND
     1   104   103    1
     2   101   103   ar
     3   101    99   ar
     4   103   102   ar
     5    99    98   ar
     6   102   100   ar
     7    93    94    1
     8    98   100   ar
     9    98    97    1
    10    94    97    1
    11    94    95    1
    12   110   109    1
    13    77    75   ar
    14    95   105   am
    15    95    96    2
    16   105   106    1
    17   109   106    1
    18    92    90    1
    19    75    76   ar
    20    75    74    1
    21   106   107    1
    22    74    71    1
    23    90    89    1
    24    91    89    1
    25   107   111   am
    26   107   108    2
    27    89    86    1
    28   111   112    1
    29    71    72    1
    30    71    70    1
    31    73    72    2
    32    86    85    1
    33    86    87    1
    34   118   116    1
    35   116   115    1
    36    72    78   am
    37    81    80    2
    38   117   115    1
    39    85    80   am
    40    62    60    1
    41   144   142    1
    42    80    79    1
    43   112   115    1
    44   112   113    1
    45    87    88    2
    46    78    79    1
    47    69    67    1
    48   114   113    2
    49    59    60    2
    50    59    58    1
    51    60    61    1
    52   143   142    1
    53    79    82    1
    54   142   141    1
    55   113   119   am
    56    68    67    1
    57    57    58    1
    58    57    56    1
    59    67    64    1
    60    64    65    1
    61    64    63    1
    62    65    66    2
    63   119   120    1
    64    82    84    1
    65    82    83    1
    66   141   138    1
    67    56    53    1
    68    53    52    1
    69    53    54    1
    70    42    41    1
    71    50    49   ar
    72   127   125   ar
    73    55    54    2
    74    41    43    1
    75    41    38    1
    76   120   121    1
    77   120   123    1
    78   125   126   ar
    79   125   124    1
    80   131   130    2
    81    40    39    2
    82   124   123    1
    83   138   137    1
    84   138   139    1
    85   128   121   am
    86   128   129    1
    87    20    18    1
    88   121   122    2
    89   130   137   am
    90   130   129    1
    91    39    38    1
    92    39    44   am
    93    49    51   ar
    94    49    48    1
    95    36    34   ar
    96    38    37    1
    97   148   147    2
    98   129   132    1
    99    45    44    1
   100    45    48    1
   101    45    46    1
   102   136   134   am
   103   151   145    1
   104   151   150    1
   105   139   145   am
   106   139   140    2
   107    35    34   ar
   108    47    46    2
   109   145   146    1
   110    34    33    1
   111    17    16    2
   112    18    19    1
   113    18    15    1
   114    21    19    1
   115   147   146    1
   116    14    15    1
   117   134   135    2
   118   134   133    1
   119   150   149    1
   120   132   133    1
   121   146   149    1
   122    16    15    1
   123    16    22   am
   124     8     7    1
   125     7     6    1
   126    33    30    1
   127    29    30    1
   128    29    24   am
   129    22    23    1
   130    23    24    1
   131    23    26    1
   132    32    31    2
   133    13    10    1
   134    30    31    1
   135    24    25    2
   136     5     6    1
   137     5     2    1
   138    28    26    1
   139    26    27    1
   140     4     3    2
   141    10     9    1
   142    10    11    1
   143     3     9   am
   144     3     2    1
   145     2     1    1
   146    11    12    2
