@<TRIPOS>MOLECULE
tmp/2z02B01.pdb
 116 112 0 0 0
SMALL
GASTEIGER

@<TRIPOS>ATOM
      1  N         -6.1280   22.8090    0.6240 N.3    98  ILE98      -0.1245
      2  CA        -7.4290   22.1630    0.6960 C.3    98  ILE98       0.1561
      3  C         -7.3980   20.7250    0.1940 C.2    98  ILE98       0.2260
      4  O         -6.8610   20.4420   -0.8720 O.2    98  ILE98      -0.2867
      5  CB        -8.4640   22.9330   -0.1470 C.3    98  ILE98       0.0252
      6  CG1       -8.4950   24.4050    0.2810 C.3    98  ILE98       0.0019
      7  CG2       -9.8510   22.3100    0.0260 C.3    98  ILE98       0.0019
      8  CD1       -9.2350   25.3160   -0.6960 C.3    98  ILE98       0.0001
      9  N         -9.9570   17.3990   -0.5020 N.3   100  ARG100     -0.1245
     10  CA       -11.3650   17.0600   -0.6490 C.3   100  ARG100      0.1563
     11  C        -11.5800   15.5780   -0.8960 C.2   100  ARG100      0.2260
     12  O        -10.9720   14.9950   -1.7920 O.2   100  ARG100     -0.2867
     13  CB       -11.9700   17.8460   -1.8120 C.3   100  ARG100      0.0307
     14  CG       -11.7420   19.3490   -1.7620 C.3   100  ARG100      0.0489
     15  CD       -12.1500   19.9760   -3.0910 C.3   100  ARG100      0.2205
     16  NE       -11.8470   21.4030   -3.1600 N.pl3 100  ARG100     -0.0865
     17  CZ       -12.5520   22.3510   -2.5510 C.cat 100  ARG100      0.5346
     18  NH1      -13.6130   22.0290   -1.8270 N.pl3 100  ARG100      0.1354
     19  NH2      -12.1890   23.6230   -2.6550 N.pl3 100  ARG100      0.1354
     20  N        -14.0980   17.5900    3.5060 N.3   181  ASP181     -0.1225
     21  CA       -12.8840   18.2770    3.0730 C.3   181  ASP181      0.1805
     22  C        -12.3810   19.1280    4.2350 C.2   181  ASP181      0.2598
     23  O        -13.0350   19.2240    5.2770 O.2   181  ASP181     -0.2718
     24  CB       -13.1420   19.1770    1.8520 C.3   181  ASP181      0.1424
     25  CG       -14.1620   20.2770    2.1300 C.2   181  ASP181      0.3668
     26  OD1      -14.0950   20.9070    3.2090 O.co2 181  ASP181     -0.2456
     27  OD2      -15.0240   20.5200    1.2580 O.co2 181  ASP181     -0.2456
     28  N        -11.2120   19.7320    4.0530 N.am  182  PHE182     -0.1962
     29  CA       -10.6340   20.5790    5.0770 C.3   182  PHE182      0.1771
     30  C         -9.5470   21.4500    4.4740 C.2   182  PHE182      0.2619
     31  O         -9.1060   21.2360    3.3410 O.2   182  PHE182     -0.2715
     32  CB       -10.0670   19.7340    6.2350 C.3   182  PHE182      0.0574
     33  CG        -8.9070   18.8490    5.8500 C.ar  182  PHE182     -0.0200
     34  CD1       -7.6060   19.3440    5.8390 C.ar  182  PHE182     -0.0042
     35  CD2       -9.1160   17.5140    5.5160 C.ar  182  PHE182     -0.0042
     36  CE1       -6.5260   18.5190    5.5030 C.ar  182  PHE182     -0.0003
     37  CE2       -8.0450   16.6800    5.1760 C.ar  182  PHE182     -0.0003
     38  CZ        -6.7480   17.1840    5.1710 C.ar  182  PHE182     -0.0000
     39  N         -9.1300   22.4430    5.2410 N.am  183  LYS183     -0.1977
     40  CA        -8.1010   23.3600    4.8040 C.3   183  LYS183      0.1596
     41  C         -7.1000   23.5750    5.9260 C.2   183  LYS183      0.2287
     42  O         -7.4770   23.8650    7.0650 O.2   183  LYS183     -0.2864
     43  CB        -8.7410   24.6860    4.3820 C.3   183  LYS183      0.0298
     44  CG        -7.8830   25.9180    4.6020 C.3   183  LYS183      0.0038
     45  CD        -8.1550   26.5340    5.9720 C.3   183  LYS183      0.0206
     46  CE        -7.3180   27.7870    6.1910 C.3   183  LYS183      0.1093
     47  NZ        -7.6450   28.4980    7.4600 N.3   183  LYS183     -0.1314
     48  N        -14.1720   22.7910   13.2130 N.3   202  PRO202     -0.2102
     49  CA       -15.3810   22.8470   12.3890 C.3   202  PRO202      0.1504
     50  C        -15.3870   24.1170   11.5340 C.2   202  PRO202      0.2576
     51  O        -16.1400   24.2220   10.5690 O.2   202  PRO202     -0.2718
     52  CB       -16.5000   22.8140   13.4280 C.3   202  PRO202      0.0282
     53  CG       -15.9300   21.9150   14.4710 C.3   202  PRO202      0.0208
     54  CD       -14.5120   22.4290   14.6030 C.3   202  PRO202      0.0893
     55  N        -14.5460   25.0840   11.8970 N.am  203  ASP203     -0.1960
     56  CA       -14.4290   26.3260   11.1260 C.3   203  ASP203      0.1840
     57  C        -13.6290   26.0610    9.8510 C.2   203  ASP203      0.2623
     58  O        -13.8000   26.7510    8.8480 O.2   203  ASP203     -0.2715
     59  CB       -13.6770   27.4120   11.9100 C.3   203  ASP203      0.1450
     60  CG       -14.6010   28.3790   12.6320 C.2   203  ASP203      0.3671
     61  OD1      -14.1280   29.4820   12.9840 O.co2 203  ASP203     -0.2456
     62  OD2      -15.7810   28.0450   12.8590 O.co2 203  ASP203     -0.2456
     63  N        -12.7510   25.0610    9.9040 N.am  204  THR204     -0.1937
     64  CA       -11.8830   24.7460    8.7780 C.3   204  THR204      0.2028
     65  C        -12.1210   23.3950    8.1070 C.2   204  THR204      0.2642
     66  O        -11.3960   23.0220    7.1900 O.2   204  THR204     -0.2714
     67  CB       -10.3990   24.8370    9.2110 C.3   204  THR204      0.1808
     68  OG1      -10.1490   23.9130   10.2790 O.3   204  THR204     -0.2208
     69  CG2      -10.0780   26.2470    9.7000 C.3   204  THR204      0.0379
     70  N        -13.1350   22.6670    8.5550 N.am  205  MET205     -0.1962
     71  CA       -13.4420   21.3680    7.9650 C.3   205  MET205      0.1736
     72  C        -14.9250   21.2440    7.6660 C.2   205  MET205      0.2616
     73  O        -15.7540   21.7990    8.3820 O.2   205  MET205     -0.2715
     74  CB       -13.1090   20.2190    8.9230 C.3   205  MET205      0.0427
     75  CG       -11.7000   20.1520    9.4760 C.3   205  MET205      0.0599
     76  SD       -11.5830   18.7320   10.6040 S.3   205  MET205     -0.1393
     77  CE       -12.0850   19.4710   12.1610 C.3   205  MET205      0.0692
     78  N        -15.2570   20.5170    6.6080 N.am  206  ARG206     -0.1977
     79  CA       -16.6510   20.2490    6.3130 C.3   206  ARG206      0.1597
     80  C        -16.8500   18.8610    6.9140 C.2   206  ARG206      0.2287
     81  O        -16.1480   17.9040    6.5590 O.2   206  ARG206     -0.2864
     82  CB       -16.9250   20.2510    4.8120 C.3   206  ARG206      0.0334
     83  CG       -17.0630   21.6540    4.2490 C.3   206  ARG206      0.0492
     84  CD       -17.9130   21.6640    3.0020 C.3   206  ARG206      0.2205
     85  NE       -18.1600   23.0270    2.5440 N.pl3 206  ARG206     -0.0865
     86  CZ       -17.2770   23.7770    1.8940 C.cat 206  ARG206      0.5346
     87  NH1      -16.0730   23.3010    1.6080 N.pl3 206  ARG206      0.1354
     88  NH2      -17.5950   25.0130    1.5410 N.pl3 206  ARG206      0.1354
     89  N        -20.4240   21.5330   10.4120 N.3   217  ASP217     -0.1225
     90  CA       -19.3810   22.5520   10.3490 C.3   217  ASP217      0.1805
     91  C        -19.8950   23.9740   10.1290 C.2   217  ASP217      0.2597
     92  O        -21.0970   24.2270   10.1430 O.2   217  ASP217     -0.2718
     93  CB       -18.3940   22.2010    9.2430 C.3   217  ASP217      0.1424
     94  CG       -19.0540   22.1440    7.8860 C.2   217  ASP217      0.3668
     95  OD1      -19.4860   21.0460    7.4830 O.co2 217  ASP217     -0.2456
     96  OD2      -19.1580   23.2050    7.2360 O.co2 217  ASP217     -0.2456
     97  N        -18.9650   24.8960    9.8990 N.am  218  LYS218     -0.1979
     98  CA       -19.3080   26.2980    9.7090 C.3   218  LYS218      0.1596
     99  C        -20.3160   26.5710    8.5930 C.2   218  LYS218      0.2287
    100  O        -20.8700   27.6700    8.5230 O.2   218  LYS218     -0.2864
    101  CB       -18.0420   27.1330    9.4850 C.3   218  LYS218      0.0298
    102  CG       -18.2540   28.6100    9.7860 C.3   218  LYS218      0.0038
    103  CD       -16.9520   29.3870    9.8410 C.3   218  LYS218      0.0206
    104  CE       -16.3730   29.6250    8.4590 C.3   218  LYS218      0.1093
    105  NZ       -15.2390   30.5810    8.5420 N.3   218  LYS218     -0.1314
    106  N        -22.7600   29.6870    7.5920 N.3   222  ARG222     -0.1245
    107  CA       -22.7430   30.2990    6.2660 C.3   222  ARG222      0.1563
    108  C        -24.1300   30.2980    5.6360 C.2   222  ARG222      0.2260
    109  O        -24.5960   31.3180    5.1280 O.2   222  ARG222     -0.2867
    110  CB       -21.8080   29.5430    5.3130 C.3   222  ARG222      0.0307
    111  CG       -20.3370   29.5190    5.6780 C.3   222  ARG222      0.0489
    112  CD       -19.5230   29.2030    4.4200 C.3   222  ARG222      0.2205
    113  NE       -18.0850   29.1830    4.6600 N.pl3 222  ARG222     -0.0865
    114  CZ       -17.4280   28.1560    5.1850 C.cat 222  ARG222      0.5346
    115  NH1      -16.1180   28.2380    5.3690 N.pl3 222  ARG222      0.1354
    116  NH2      -18.0750   27.0450    5.5170 N.pl3 222  ARG222      0.1354
@<TRIPOS>BOND
     1    16    15    1
     2    16    17    2
     3    15    14    1
     4    19    17    1
     5    17    18    1
     6    13    14    1
     7    13    10    1
     8    12    11    2
     9    11    10    1
    10     4     3    2
    11     8     6    1
    12    10     9    1
    13     5     7    1
    14     5     6    1
    15     5     2    1
    16     3     2    1
    17     1     2    1
    18    27    25   ar
    19    88    86    1
    20    87    86    1
    21    24    25    1
    22    24    21    1
    23    86    85    2
    24    25    26   ar
    25    85    84    1
    26    84    83    1
    27    21    20    1
    28    21    22    1
    29    31    30    2
    30    28    22   am
    31    28    29    1
    32    22    23    2
    33    83    82    1
    34    43    44    1
    35    43    40    1
    36   112   113    1
    37   112   111    1
    38    30    29    1
    39    30    39   am
    40    44    45    1
    41   113   114    2
    42    40    39    1
    43    40    41    1
    44    82    79    1
    45    29    32    1
    46   109   108    2
    47    38    37   ar
    48    38    36   ar
    49    37    35   ar
    50   114   115    1
    51   114   116    1
    52   110   111    1
    53   110   107    1
    54    36    34   ar
    55    35    33   ar
    56   108   107    1
    57    34    33   ar
    58    33    32    1
    59    41    42    2
    60    45    46    1
    61    46    47    1
    62   107   106    1
    63    79    78    1
    64    79    80    1
    65    81    80    2
    66    78    72   am
    67    66    65    2
    68    96    94   ar
    69    95    94   ar
    70    72    71    1
    71    72    73    2
    72    94    93    1
    73    71    70    1
    74    71    74    1
    75    65    70   am
    76    65    64    1
    77   104   105    1
    78   104   103    1
    79   100    99    2
    80    99    98    1
    81    64    67    1
    82    64    63    1
    83    58    57    2
    84    74    75    1
    85    67    69    1
    86    67    68    1
    87    93    90    1
    88    75    76    1
    89   101    98    1
    90   101   102    1
    91    98    97    1
    92   102   103    1
    93    57    63   am
    94    57    56    1
    95    97    91   am
    96    91    92    2
    97    91    90    1
    98    90    89    1
    99    51    50    2
   100    76    77    1
   101    56    55    1
   102    56    59    1
   103    50    55   am
   104    50    49    1
   105    59    60    1
   106    49    48    1
   107    49    52    1
   108    60    62   ar
   109    60    61   ar
   110    48    54    1
   111    52    53    1
   112    53    54    1
