@<TRIPOS>MOLECULE
tmp/2z02B00.pdb
 168 157 0 0 0
SMALL
GASTEIGER

@<TRIPOS>ATOM
      1  N         -0.6810   39.6570   16.3870 N.3    15  TYR15      -0.1241
      2  CA        -1.5810   39.6840   15.2450 C.3    15  TYR15       0.1605
      3  C         -2.9740   39.2230   15.6340 C.2    15  TYR15       0.2264
      4  O         -3.1340   38.2840   16.4140 O.2    15  TYR15      -0.2867
      5  CB        -1.0620   38.7760   14.1320 C.3    15  TYR15       0.0534
      6  CG        -1.9730   38.7360   12.9270 C.ar   15  TYR15      -0.0201
      7  CD1       -2.0750   39.8310   12.0690 C.ar   15  TYR15      -0.0009
      8  CD2       -2.7530   37.6140   12.6560 C.ar   15  TYR15      -0.0009
      9  CE1       -2.9330   39.8090   10.9690 C.ar   15  TYR15       0.0417
     10  CE2       -3.6150   37.5810   11.5590 C.ar   15  TYR15       0.0417
     11  CZ        -3.6990   38.6800   10.7200 C.ar   15  TYR15       0.1957
     12  OH        -4.5440   38.6490    9.6300 O.3    15  TYR15      -0.2866
     13  N         -6.5910   38.1850   13.7650 N.3    17  GLY17      -0.1210
     14  CA        -7.2720   37.9170   12.5130 C.3    17  GLY17       0.1956
     15  C         -8.7680   37.9470   12.7400 C.2    17  GLY17       0.2612
     16  O         -9.2260   38.4590   13.7580 O.2    17  GLY17      -0.2717
     17  N         -9.5250   37.3830   11.8060 N.am   18  LYS18      -0.1965
     18  CA       -10.9810   37.3540   11.9060 C.3    18  LYS18       0.1728
     19  C        -11.5280   36.4070   12.9730 C.2    18  LYS18       0.2616
     20  O        -12.6900   36.5110   13.3510 O.2    18  LYS18      -0.2715
     21  CB       -11.5910   36.9640   10.5570 C.3    18  LYS18       0.0311
     22  CG       -11.2600   37.9180    9.4270 C.3    18  LYS18       0.0038
     23  CD       -11.9800   37.5230    8.1440 C.3    18  LYS18       0.0206
     24  CE       -11.5340   36.1550    7.6550 C.3    18  LYS18       0.1093
     25  NZ       -10.0810   36.1310    7.3490 N.3    18  LYS18      -0.1314
     26  N        -10.7000   35.4930   13.4690 N.am   19  ALA19      -0.1963
     27  CA       -11.1740   34.5320   14.4580 C.3    19  ALA19       0.1728
     28  C        -10.2440   34.2690   15.6380 C.2    19  ALA19       0.2616
     29  O        -10.6980   33.8660   16.7120 O.2    19  ALA19      -0.2715
     30  CB       -11.4970   33.2150   13.7640 C.3    19  ALA19       0.0334
     31  N         -8.9510   34.4920   15.4470 N.am   20  LYS20      -0.1977
     32  CA        -7.9890   34.2320   16.5080 C.3    20  LYS20       0.1596
     33  C         -6.9640   35.3480   16.6990 C.2    20  LYS20       0.2287
     34  O         -6.6770   36.1020   15.7720 O.2    20  LYS20      -0.2864
     35  CB        -7.2540   32.9180   16.2230 C.3    20  LYS20       0.0298
     36  CG        -8.1670   31.7110   16.0050 C.3    20  LYS20       0.0038
     37  CD        -7.3880   30.4020   16.0970 C.3    20  LYS20       0.0206
     38  CE        -6.2860   30.3120   15.0460 C.3    20  LYS20       0.1093
     39  NZ        -6.8390   30.2010   13.6730 N.3    20  LYS20      -0.1314
     40  N         -3.0030   36.1950   18.0600 N.3    22  ILE22      -0.1245
     41  CA        -1.6890   35.6240   18.3140 C.3    22  ILE22       0.1561
     42  C         -0.9140   36.5120   19.2860 C.2    22  ILE22       0.2260
     43  O         -0.6660   37.6840   18.9970 O.2    22  ILE22      -0.2867
     44  CB        -0.8790   35.5040   17.0000 C.3    22  ILE22       0.0252
     45  CG1       -1.7210   34.8090   15.9230 C.3    22  ILE22       0.0019
     46  CG2        0.4060   34.7300   17.2420 C.3    22  ILE22       0.0019
     47  CD1       -2.1540   33.3940   16.2760 C.3    22  ILE22       0.0001
     48  N          4.1580   30.8590   20.7990 N.3    30  VAL30      -0.1245
     49  CA         3.0610   31.8150   20.8290 C.3    30  VAL30       0.1561
     50  C          1.8110   31.2740   21.5170 C.2    30  VAL30       0.2260
     51  O          1.5940   30.0610   21.6060 O.2    30  VAL30      -0.2867
     52  CB         2.6720   32.2490   19.3980 C.3    30  VAL30       0.0252
     53  CG1        3.8110   33.0390   18.7590 C.3    30  VAL30       0.0019
     54  CG2        2.3360   31.0160   18.5600 C.3    30  VAL30       0.0019
     55  N         -2.1090   31.1660   21.2590 N.3    32  ILE32      -0.1245
     56  CA        -3.1420   31.3980   20.2650 C.3    32  ILE32       0.1561
     57  C         -4.4970   31.4280   20.9480 C.2    32  ILE32       0.2260
     58  O         -4.9070   30.4500   21.5740 O.2    32  ILE32      -0.2867
     59  CB        -3.1310   30.3050   19.1810 C.3    32  ILE32       0.0252
     60  CG1       -1.7650   30.2880   18.4840 C.3    32  ILE32       0.0019
     61  CG2       -4.2580   30.5600   18.1760 C.3    32  ILE32       0.0019
     62  CD1       -1.5720   29.1320   17.5120 C.3    32  ILE32       0.0001
     63  N          2.5220   22.5180   14.9790 N.3    75  HIS75      -0.1241
     64  CA         2.9800   23.5980   15.8460 C.3    75  HIS75       0.1621
     65  C          2.4090   23.4880   17.2610 C.2    75  HIS75       0.2264
     66  O          2.7480   24.2820   18.1350 O.2    75  HIS75      -0.2867
     67  CB         2.5950   24.9540   15.2350 C.3    75  HIS75       0.0745
     68  CG         1.1410   25.3000   15.3640 C.ar   75  HIS75       0.0817
     69  ND1        0.1580   24.3540   15.5670 N.ar   75  HIS75      -0.2268
     70  CD2        0.5020   26.4920   15.2830 C.ar   75  HIS75       0.1154
     71  CE1       -1.0220   24.9500   15.6070 C.ar   75  HIS75       0.1986
     72  NE2       -0.8400   26.2470   15.4370 N.ar   75  HIS75      -0.2212
     73  N          1.6180   27.2660   21.0690 N.3    87  ALA87      -0.1231
     74  CA         2.1470   26.6700   19.8520 C.3    87  ALA87       0.1694
     75  C          3.5240   27.1940   19.4880 C.2    87  ALA87       0.2592
     76  O          3.9180   28.2830   19.9010 O.2    87  ALA87      -0.2718
     77  CB         1.1790   26.9140   18.6880 C.3    87  ALA87       0.0304
     78  N          4.2520   26.3970   18.7140 N.am   88  LYS88      -0.1966
     79  CA         5.5660   26.7940   18.2510 C.3    88  LYS88       0.1728
     80  C          5.3140   27.9300   17.2720 C.2    88  LYS88       0.2616
     81  O          4.3890   27.8610   16.4570 O.2    88  LYS88      -0.2715
     82  CB         6.2560   25.6420   17.5190 C.3    88  LYS88       0.0311
     83  CG         6.4310   24.3930   18.3570 C.3    88  LYS88       0.0038
     84  CD         7.1140   23.2940   17.5660 C.3    88  LYS88       0.0206
     85  CE         7.2190   22.0040   18.3720 C.3    88  LYS88       0.1093
     86  NZ         7.9030   20.9260   17.6040 N.3    88  LYS88      -0.1314
     87  N          6.1170   28.9810   17.3600 N.am   89  LYS89      -0.1963
     88  CA         5.9630   30.1050   16.4500 C.3    89  LYS89       0.1728
     89  C          6.4640   29.6850   15.0660 C.2    89  LYS89       0.2616
     90  O          7.5040   29.0410   14.9430 O.2    89  LYS89      -0.2715
     91  CB         6.7700   31.3000   16.9540 C.3    89  LYS89       0.0311
     92  CG         6.4960   32.5800   16.1990 C.3    89  LYS89       0.0038
     93  CD         7.2730   33.7350   16.7850 C.3    89  LYS89       0.0206
     94  CE         6.8400   35.0500   16.1510 C.3    89  LYS89       0.1093
     95  NZ         7.6230   36.2050   16.6720 N.3    89  LYS89      -0.1314
     96  N          5.7140   30.0220   14.0260 N.am   90  VAL90      -0.1977
     97  CA         6.1350   29.6780   12.6730 C.3    90  VAL90       0.1596
     98  C          5.8530   30.8230   11.7280 C.2    90  VAL90       0.2287
     99  O          5.0830   31.7340   12.0430 O.2    90  VAL90      -0.2864
    100  CB         5.4050   28.4250   12.1150 C.3    90  VAL90       0.0276
    101  CG1        5.6850   27.2080   12.9950 C.3    90  VAL90       0.0022
    102  CG2        3.9060   28.6940   12.0070 C.3    90  VAL90       0.0022
    103  N          4.1090   31.6140    8.5160 N.3    92  ILE92      -0.1245
    104  CA         3.0630   31.0480    7.6690 C.3    92  ILE92       0.1561
    105  C          3.3010   31.2230    6.1670 C.2    92  ILE92       0.2260
    106  O          3.6010   32.3180    5.6940 O.2    92  ILE92      -0.2867
    107  CB         1.6810   31.6670    8.0100 C.3    92  ILE92       0.0252
    108  CG1        1.2510   31.2570    9.4220 C.3    92  ILE92       0.0019
    109  CG2        0.6340   31.2090    7.0020 C.3    92  ILE92       0.0019
    110  CD1        1.0050   29.7590    9.5790 C.3    92  ILE92       0.0001
    111  N         -3.3400   28.2900    1.1120 N.3    96  GLU96      -0.1245
    112  CA        -4.4120   27.5910    1.7990 C.3    96  GLU96       0.1567
    113  C         -4.4290   26.1800    1.1940 C.2    96  GLU96       0.2260
    114  O         -4.7010   26.0160    0.0050 O.2    96  GLU96      -0.2867
    115  CB        -5.7350   28.3120    1.5370 C.3    96  GLU96       0.0388
    116  CG        -6.7640   28.1740    2.6360 C.3    96  GLU96       0.1160
    117  CD        -6.5990   29.2150    3.7340 C.2    96  GLU96       0.3649
    118  OE1       -5.4960   29.3180    4.3140 O.co2  96  GLU96      -0.2457
    119  OE2       -7.5830   29.9320    4.0240 O.co2  96  GLU96      -0.2457
    120  N         -3.1770   32.6950   -0.5240 N.3   129  LYS129     -0.1245
    121  CA        -3.7820   33.4760    0.5570 C.3   129  LYS129      0.1561
    122  C         -3.4280   34.9370    0.3340 C.2   129  LYS129      0.2260
    123  O         -2.3230   35.3730    0.6610 O.2   129  LYS129     -0.2867
    124  CB        -3.2580   33.0120    1.9160 C.3   129  LYS129      0.0271
    125  CG        -3.5720   31.5610    2.2160 C.3   129  LYS129      0.0035
    126  CD        -3.1780   31.1890    3.6310 C.3   129  LYS129      0.0206
    127  CE        -3.8740   32.0900    4.6400 C.3   129  LYS129      0.1093
    128  NZ        -5.3460   32.0250    4.4710 N.3   129  LYS129     -0.1314
    129  N         -9.1300   22.4430    5.2410 N.3   183  LYS183     -0.1245
    130  CA        -8.1010   23.3600    4.8040 C.3   183  LYS183      0.1561
    131  C         -7.1000   23.5750    5.9260 C.2   183  LYS183      0.2260
    132  O         -7.4770   23.8650    7.0650 O.2   183  LYS183     -0.2867
    133  CB        -8.7410   24.6860    4.3820 C.3   183  LYS183      0.0271
    134  CG        -7.8830   25.9180    4.6020 C.3   183  LYS183      0.0035
    135  CD        -8.1550   26.5340    5.9720 C.3   183  LYS183      0.0206
    136  CE        -7.3180   27.7870    6.1910 C.3   183  LYS183      0.1093
    137  NZ        -7.6450   28.4980    7.4600 N.3   183  LYS183     -0.1314
    138  N         -3.0160   25.1760    7.0560 N.3   185  GLU185     -0.1245
    139  CA        -1.9830   26.1480    6.7500 C.3   185  GLU185      0.1567
    140  C         -0.6780   25.5480    7.2190 C.2   185  GLU185      0.2260
    141  O         -0.6290   24.8850    8.2600 O.2   185  GLU185     -0.2867
    142  CB        -2.2420   27.4670    7.4740 C.3   185  GLU185      0.0388
    143  CG        -3.1620   28.3950    6.7210 C.3   185  GLU185      0.1160
    144  CD        -3.6900   29.5090    7.5850 C.2   185  GLU185      0.3649
    145  OE1       -2.9260   30.0330    8.4230 O.co2 185  GLU185     -0.2457
    146  OE2       -4.8720   29.8670    7.4180 O.co2 185  GLU185     -0.2457
    147  N          0.1360   24.2120   10.9470 N.3   197  ALA197     -0.1231
    148  CA        -0.0960   25.2250   11.9600 C.3   197  ALA197      0.1694
    149  C         -1.5640   25.6240   12.0410 C.2   197  ALA197      0.2592
    150  O         -2.4570   24.8230   11.7540 O.2   197  ALA197     -0.2718
    151  CB         0.7720   26.4510   11.6670 C.3   197  ALA197      0.0304
    152  N         -1.7960   26.8710   12.4440 N.am  198  ASP198     -0.1960
    153  CA        -3.1360   27.4310   12.5770 C.3   198  ASP198      0.1840
    154  C         -4.0680   26.5370   13.3860 C.2   198  ASP198      0.2621
    155  O         -3.7740   26.2100   14.5320 O.2   198  ASP198     -0.2715
    156  CB        -3.7460   27.6980   11.1970 C.3   198  ASP198      0.1450
    157  CG        -4.8750   28.7190   11.2520 C.2   198  ASP198      0.3671
    158  OD1       -5.9340   28.4890   10.6240 O.co2 198  ASP198     -0.2456
    159  OD2       -4.6950   29.7600   11.9180 O.co2 198  ASP198     -0.2456
    160  N         -5.1890   26.1420   12.7920 N.am  199  GLU199     -0.1977
    161  CA        -6.1610   25.2990   13.4900 C.3   199  GLU199      0.1602
    162  C         -6.8120   24.2650   12.5820 C.2   199  GLU199      0.2287
    163  O         -6.7530   24.3610   11.3570 O.2   199  GLU199     -0.2864
    164  CB        -7.2830   26.1590   14.0880 C.3   199  GLU199      0.0415
    165  CG        -8.1570   26.8250   13.0160 C.3   199  GLU199      0.1163
    166  CD        -9.2640   27.6940   13.5960 C.2   199  GLU199      0.3649
    167  OE1      -10.2870   27.1400   14.0580 O.co2 199  GLU199     -0.2457
    168  OE2       -9.1050   28.9350   13.5930 O.co2 199  GLU199     -0.2457
@<TRIPOS>BOND
     1   120   121    1
     2   114   113    2
     3   122   121    1
     4   122   123    2
     5   121   124    1
     6   111   112    1
     7   113   112    1
     8   115   112    1
     9   115   116    1
    10   124   125    1
    11   125   126    1
    12   116   117    1
    13   126   127    1
    14   117   119   ar
    15   117   118   ar
    16   133   134    1
    17   133   130    1
    18   128   127    1
    19   134   135    1
    20   130   129    1
    21   130   131    1
    22   106   105    2
    23   131   132    2
    24   135   136    1
    25   105   104    1
    26   136   137    1
    27   143   142    1
    28   143   144    1
    29   139   138    1
    30   139   140    1
    31   139   142    1
    32   109   107    1
    33   140   141    2
    34    25    24    1
    35   146   144   ar
    36   144   145   ar
    37    24    23    1
    38   104   107    1
    39   104   103    1
    40   107   108    1
    41    23    22    1
    42   108   110    1
    43    22    21    1
    44    12    11    1
    45    21    18    1
    46   158   157   ar
    47    11     9   ar
    48    11    10   ar
    49   147   148    1
    50     9     7   ar
    51   156   157    1
    52   156   153    1
    53   157   159   ar
    54   163   162    2
    55    10     8   ar
    56   151   148    1
    57    98    99    2
    58    98    97    1
    59   150   149    2
    60    17    18    1
    61    17    15   am
    62    18    19    1
    63   148   149    1
    64   102   100    1
    65   149   152   am
    66     7     6   ar
    67   100    97    1
    68   100   101    1
    69   152   153    1
    70    14    15    1
    71    14    13    1
    72   153   154    1
    73   162   161    1
    74     8     6   ar
    75    97    96    1
    76    15    16    2
    77   160   154   am
    78   160   161    1
    79     6     5    1
    80    19    20    2
    81    19    26   am
    82   165   166    1
    83   165   164    1
    84   154   155    2
    85    26    27    1
    86   161   164    1
    87   168   166   ar
    88   166   167   ar
    89    39    38    1
    90    30    27    1
    91    96    89   am
    92     5     2    1
    93    27    28    1
    94    90    89    2
    95    63    64    1
    96    38    37    1
    97    89    88    1
    98    67    68    1
    99    67    64    1
   100     2     3    1
   101     2     1    1
   102    70    68   ar
   103    70    72   ar
   104    68    69   ar
   105    72    71   ar
   106    31    28   am
   107    31    32    1
   108    69    71   ar
   109     3     4    2
   110    28    29    2
   111    34    33    2
   112    64    65    1
   113    45    47    1
   114    45    44    1
   115    36    37    1
   116    36    35    1
   117    94    95    1
   118    94    93    1
   119    92    93    1
   120    92    91    1
   121    35    32    1
   122    88    91    1
   123    88    87    1
   124    81    80    2
   125    32    33    1
   126    44    46    1
   127    44    41    1
   128    65    66    2
   129    80    87   am
   130    80    79    1
   131    62    60    1
   132    82    79    1
   133    82    83    1
   134    84    83    1
   135    84    85    1
   136    86    85    1
   137    40    41    1
   138    61    59    1
   139    79    78    1
   140    41    42    1
   141    60    59    1
   142    54    52    1
   143    77    74    1
   144    78    75   am
   145    53    52    1
   146    43    42    2
   147    59    56    1
   148    52    49    1
   149    75    74    1
   150    75    76    2
   151    74    73    1
   152    56    57    1
   153    56    55    1
   154    48    49    1
   155    49    50    1
   156    57    58    2
   157    50    51    2
