@<TRIPOS>MOLECULE
tmp/2z08A00.pdb
 166 159 0 0 0
SMALL
GASTEIGER

@<TRIPOS>ATOM
      1  N         14.7700   16.7210   11.6330 N.3     8  ALA8       -0.1231
      2  CA        14.7590   15.5080   12.5080 C.3     8  ALA8        0.1694
      3  C         16.1700   15.3840   13.0350 C.2     8  ALA8        0.2592
      4  O         17.0940   15.2290   12.2760 O.2     8  ALA8       -0.2718
      5  CB        14.4070   14.2710   11.6830 C.3     8  ALA8        0.0304
      6  N         16.3110   15.4550   14.3570 N.am    9  TYR9       -0.1962
      7  CA        17.6670   15.4730   14.9430 C.3     9  TYR9        0.1771
      8  C         17.8920   14.3120   15.8940 C.2     9  TYR9        0.2619
      9  O         17.1080   14.0670   16.8190 O.2     9  TYR9       -0.2715
     10  CB        17.7660   16.8210   15.7610 C.3     9  TYR9        0.0574
     11  CG        19.1840   17.1090   16.1320 C.ar    9  TYR9       -0.0198
     12  CD1       20.0220   17.7500   15.2000 C.ar    9  TYR9       -0.0009
     13  CD2       19.6580   16.8500   17.3820 C.ar    9  TYR9       -0.0009
     14  CE1       21.2490   18.1350   15.5030 C.ar    9  TYR9        0.0417
     15  CE2       20.9820   17.2650   17.7300 C.ar    9  TYR9        0.0417
     16  CZ        21.7280   17.9150   16.7770 C.ar    9  TYR9        0.1957
     17  OH        22.9800   18.4820   16.9670 O.3     9  TYR9       -0.2866
     18  N         19.0360   13.6290   15.7230 N.am   10  ASP10      -0.1971
     19  CA        19.3710   12.4990   16.6260 C.3    10  ASP10       0.1709
     20  C         20.6730   12.7090   17.3270 C.2    10  ASP10       0.2293
     21  O         21.1100   11.7540   18.0120 O.2    10  ASP10      -0.2864
     22  CB        19.4120   11.1370   15.8620 C.3    10  ASP10       0.1436
     23  CG        20.4870   11.0320   14.8640 C.2    10  ASP10       0.3671
     24  OD1       21.1730   12.0170   14.5270 O.co2  10  ASP10      -0.2456
     25  OD2       20.7460    9.9100   14.4090 O.co2  10  ASP10      -0.2456
     26  N         23.5650   12.9220   15.9680 N.3    12  SER12      -0.1217
     27  CA        24.6960   12.3560   15.2280 C.3    12  SER12       0.1889
     28  C         25.4300   13.4790   14.4570 C.2    12  SER12       0.2288
     29  O         24.9320   14.6270   14.3430 O.2    12  SER12      -0.2866
     30  CB        24.2030   11.2890   14.1870 C.3    12  SER12       0.2089
     31  OG        23.4840   11.9670   13.1590 O.3    12  SER12      -0.2183
     32  N         23.3540   14.5470   11.6460 N.3    15  ALA15      -0.1245
     33  CA        22.2720   15.4190   12.0860 C.3    15  ALA15       0.1562
     34  C         22.7780   16.8040   12.4300 C.2    15  ALA15       0.2260
     35  O         22.0600   17.7570   12.2880 O.2    15  ALA15      -0.2867
     36  CB        21.4650   14.8360   13.2480 C.3    15  ALA15       0.0290
     37  N         12.8080   18.3620   15.8750 N.3    36  VAL36      -0.1231
     38  CA        12.2590   17.2860   16.6680 C.3    36  VAL36       0.1692
     39  C         13.2350   16.1950   16.9610 C.2    36  VAL36       0.2592
     40  O         14.1890   15.9570   16.1740 O.2    36  VAL36      -0.2718
     41  CB        11.0460   16.7270   16.0830 C.3    36  VAL36       0.0266
     42  CG1       10.1230   17.9040   15.7260 C.3    36  VAL36       0.0020
     43  CG2       11.2430   15.8880   14.7720 C.3    36  VAL36       0.0020
     44  N         13.1230   15.6680   18.1690 N.am   37  HIS37      -0.1962
     45  CA        13.9530   14.5640   18.5290 C.3    37  HIS37       0.1787
     46  C         13.0200   13.5440   19.1570 C.2    37  HIS37       0.2620
     47  O         12.3320   13.8540   20.0860 O.2    37  HIS37      -0.2715
     48  CB        15.0720   14.9320   19.4980 C.3    37  HIS37       0.0785
     49  CG        15.8110   13.7260   20.0040 C.ar   37  HIS37       0.0821
     50  ND1       16.3780   12.7790   19.1530 N.ar   37  HIS37      -0.2267
     51  CD2       16.0960   13.3340   21.2660 C.ar   37  HIS37       0.1154
     52  CE1       16.9760   11.8390   19.9140 C.ar   37  HIS37       0.1986
     53  NE2       16.7930   12.1540   21.2010 N.ar   37  HIS37      -0.2212
     54  N         13.0560   12.2970   18.6880 N.am   38  ALA38      -0.1977
     55  CA        12.2670   11.2310   19.2160 C.3    38  ALA38       0.1597
     56  C         13.0570   10.3780   20.2000 C.2    38  ALA38       0.2287
     57  O         14.2400   10.1590   19.9680 O.2    38  ALA38      -0.2864
     58  CB        11.7800   10.2790   18.0030 C.3    38  ALA38       0.0319
     59  N         12.9570    6.6120   22.3160 N.3    40  GLU40      -0.1245
     60  CA        12.3000    5.3130   22.0640 C.3    40  GLU40       0.1567
     61  C         11.7150    4.7390   23.3330 C.2    40  GLU40       0.2260
     62  O         12.0520    5.1540   24.4230 O.2    40  GLU40      -0.2867
     63  CB        13.3060    4.3130   21.4500 C.3    40  GLU40       0.0388
     64  CG        13.5290    4.5760   19.9430 C.3    40  GLU40       0.1160
     65  CD        14.6790    3.7530   19.4090 C.2    40  GLU40       0.3649
     66  OE1       15.0340    2.8120   20.1550 O.co2  40  GLU40      -0.2457
     67  OE2       15.1450    4.0750   18.3250 O.co2  40  GLU40      -0.2457
     68  N         11.3320    6.5790   15.5700 N.3    73  PRO73      -0.2116
     69  CA        11.6330    7.9100   15.0790 C.3    73  PRO73       0.1372
     70  C         10.9160    8.3710   13.8510 C.2    73  PRO73       0.2244
     71  O         10.2680    9.4000   13.7710 O.2    73  PRO73      -0.2868
     72  CB        13.1980    7.8800   14.9850 C.3    73  PRO73       0.0268
     73  CG        13.5600    7.0060   16.0400 C.3    73  PRO73       0.0207
     74  CD        12.5570    5.8410   15.9370 C.3    73  PRO73       0.0892
     75  N          8.5160   11.5630   13.5350 N.3    77  ILE77      -0.1245
     76  CA         8.8030   12.6270   12.5660 C.3    77  ILE77       0.1561
     77  C          7.6280   12.8800   11.6200 C.2    77  ILE77       0.2260
     78  O          7.2820   14.0290   11.3500 O.2    77  ILE77      -0.2867
     79  CB        10.1400   12.2200   11.7350 C.3    77  ILE77       0.0252
     80  CG1       11.4150   12.3080   12.6440 C.3    77  ILE77       0.0019
     81  CG2       10.4730   13.1930   10.5740 C.3    77  ILE77       0.0019
     82  CD1       11.1810   11.8300   13.8510 C.3    77  ILE77       0.0001
     83  N         16.9660   15.8260    7.1290 N.3    91  MET91      -0.1230
     84  CA        17.4700   14.8870    8.1120 C.3    91  MET91       0.1702
     85  C         18.8000   14.2860    7.5440 C.2    91  MET91       0.2593
     86  O         19.0510   14.5050    6.3640 O.2    91  MET91      -0.2718
     87  CB        16.4190   13.7330    8.3160 C.3    91  MET91       0.0401
     88  CG        16.2270   12.8610    7.0780 C.3    91  MET91       0.0596
     89  SD        14.5740   11.9560    7.2600 S.3    91  MET91      -0.1393
     90  CE        14.9130   11.0040    8.7870 C.3    91  MET91       0.0692
     91  N         19.5970   13.6150    8.3510 N.am   92  GLY92      -0.1942
     92  CA        20.8010   13.0390    7.8000 C.3    92  GLY92       0.2014
     93  C         20.5220   11.8040    6.9970 C.2    92  GLY92       0.2640
     94  O         19.4700   11.1640    7.1190 O.2    92  GLY92      -0.2714
     95  N         21.5170   11.4560    6.1520 N.am   93  THR93      -0.1936
     96  CA        21.3580   10.1660    5.4710 C.3    93  THR93       0.2028
     97  C         21.5110    8.9870    6.4550 C.2    93  THR93       0.2642
     98  O         20.9190    7.9380    6.2290 O.2    93  THR93      -0.2714
     99  CB        22.4230   10.0480    4.3390 C.3    93  THR93       0.1808
    100  OG1       23.7110   10.3320    4.9840 O.3    93  THR93      -0.2208
    101  CG2       22.1630   10.9870    3.1840 C.3    93  THR93       0.0379
    102  N         22.4320    9.1540    7.4420 N.am   94  ARG94      -0.1963
    103  CA        22.6280    8.1160    8.4460 C.3    94  ARG94       0.1729
    104  C         22.6520    8.8000    9.8440 C.2    94  ARG94       0.2617
    105  O         22.5090   10.0490    9.9360 O.2    94  ARG94      -0.2715
    106  CB        23.9050    7.3130    8.1740 C.3    94  ARG94       0.0348
    107  CG        23.7140    6.5360    6.8450 C.3    94  ARG94       0.0492
    108  CD        25.0430    5.9090    6.4320 C.3    94  ARG94       0.2205
    109  NE        25.1090    4.6230    7.0820 N.pl3  94  ARG94      -0.0865
    110  CZ        26.1430    3.7920    6.9370 C.cat  94  ARG94       0.5346
    111  NH1       27.1810    4.1990    6.1880 N.pl3  94  ARG94       0.1354
    112  NH2       26.1000    2.5410    7.4850 N.pl3  94  ARG94       0.1354
    113  N         22.8690    7.9730   10.8600 N.am   95  GLY95      -0.1940
    114  CA        22.8030    8.4630   12.2400 C.3    95  GLY95       0.2014
    115  C         23.6860    7.6850   13.1840 C.2    95  GLY95       0.2639
    116  O         24.7680    7.1750   12.8270 O.2    95  GLY95      -0.2714
    117  N         23.2370    7.6550   14.4090 N.am   96  LEU96      -0.1963
    118  CA        24.0260    7.0080   15.4270 C.3    96  LEU96       0.1728
    119  C         24.2010    5.5880   15.1670 C.2    96  LEU96       0.2617
    120  O         25.1830    4.9770   15.6640 O.2    96  LEU96      -0.2715
    121  CB        23.3570    7.2070   16.7940 C.3    96  LEU96       0.0311
    122  CG        23.3090    8.6650   17.2530 C.3    96  LEU96       0.0022
    123  CD1       22.6860    8.5890   18.6390 C.3    96  LEU96       0.0001
    124  CD2       24.6250    9.3240   17.3190 C.3    96  LEU96       0.0001
    125  N         23.3060    4.9580   14.4370 N.am   97  GLY97      -0.1940
    126  CA        23.4000    3.5180   14.2170 C.3    97  GLY97       0.2014
    127  C         24.2170    3.1090   12.9920 C.2    97  GLY97       0.2638
    128  O         24.1120    1.9300   12.5740 O.2    97  GLY97      -0.2714
    129  N         24.9570    4.0280   12.4260 N.am   98  ALA98      -0.1977
    130  CA        25.6030    3.7120   11.1310 C.3    98  ALA98       0.1597
    131  C         26.7370    2.7920   11.2090 C.2    98  ALA98       0.2287
    132  O         27.6800    3.0300   11.9050 O.2    98  ALA98      -0.2864
    133  CB        26.0070    4.8810   10.4800 C.3    98  ALA98       0.0319
    134  N         24.0680    0.0820    5.2470 N.3   102  LEU102     -0.1245
    135  CA        22.8010    0.4370    4.6060 C.3   102  LEU102      0.1561
    136  C         22.9830    1.4900    3.5670 C.2   102  LEU102      0.2260
    137  O         23.9120    2.2490    3.7070 O.2   102  LEU102     -0.2867
    138  CB        21.8530    1.0430    5.6240 C.3   102  LEU102      0.0270
    139  CG        21.1790    0.0530    6.6510 C.3   102  LEU102      0.0019
    140  CD1       20.4980    0.8970    7.6590 C.3   102  LEU102      0.0001
    141  CD2       20.2280   -0.9760    5.9280 C.3   102  LEU102      0.0001
    142  N         19.9260    5.3040    6.2450 N.3   105  GLY105     -0.1210
    143  CA        19.5020    4.8030    7.5190 C.3   105  GLY105      0.1956
    144  C         18.0250    4.3030    7.5320 C.2   105  GLY105      0.2613
    145  O         17.3180    4.9030    6.6630 O.2   105  GLY105     -0.2717
    146  N         17.6390    3.4710    8.4620 N.am  106  SER106     -0.1938
    147  CA        16.2830    2.8820    8.4040 C.3   106  SER106      0.2055
    148  C         15.2570    3.9880    8.7100 C.2   106  SER106      0.2643
    149  O         14.0910    3.8990    8.2230 O.2   106  SER106     -0.2714
    150  CB        16.1040    1.7320    9.3620 C.3   106  SER106      0.2130
    151  OG        16.0520    1.9850   10.7090 O.3   106  SER106     -0.2179
    152  N         15.5760    4.9630    9.5570 N.am  107  GLN107     -0.1963
    153  CA        14.5850    6.0250    9.8040 C.3   107  GLN107      0.1733
    154  C         14.4490    6.9560    8.5960 C.2   107  GLN107      0.2617
    155  O         13.3650    7.3400    8.2380 O.2   107  GLN107     -0.2715
    156  CB        14.9320    6.7740   11.1090 C.3   107  GLN107      0.0408
    157  CG        15.1340    5.7890   12.2720 C.3   107  GLN107      0.0908
    158  CD        13.9180    4.9200   12.5960 C.2   107  GLN107      0.2608
    159  OE1       14.1010    3.7760   13.1260 O.2   107  GLN107     -0.2717
    160  NE2       12.8230    5.3740   12.3820 N.am  107  GLN107     -0.0878
    161  N         15.5750    7.3290    7.9210 N.am  108  SER108     -0.1950
    162  CA        15.4380    8.0810    6.6970 C.3   108  SER108      0.1924
    163  C         14.7090    7.2890    5.5730 C.2   108  SER108      0.2314
    164  O         13.9070    7.9230    4.8700 O.2   108  SER108     -0.2863
    165  CB        16.7770    8.4710    6.1470 C.3   108  SER108      0.2116
    166  OG        17.3580    9.4500    7.0110 O.3   108  SER108     -0.2180
@<TRIPOS>BOND
     1   101    99    1
     2   136   137    2
     3   136   135    1
     4    99   100    1
     5    99    96    1
     6   135   134    1
     7   135   138    1
     8   164   163    2
     9    96    95    1
    10    96    97    1
    11   163   162    1
    12   138   139    1
    13   141   139    1
    14   165   162    1
    15   165   166    1
    16    95    93   am
    17   111   110    1
    18    98    97    2
    19   142   143    1
    20    86    85    2
    21   108   107    1
    22   108   109    1
    23    97   102   am
    24   139   140    1
    25   145   144    2
    26   162   161    1
    27   107   106    1
    28   110   109    2
    29   110   112    1
    30    93    94    2
    31    93    92    1
    32    88    89    1
    33    88    87    1
    34    83    84    1
    35    89    90    1
    36   102   103    1
    37   143   144    1
    38   144   146   am
    39    85    84    1
    40    85    91   am
    41    92    91    1
    42   161   154   am
    43    84    87    1
    44   106   103    1
    45   149   148    2
    46   155   154    2
    47   147   146    1
    48   147   148    1
    49   147   150    1
    50   103   104    1
    51   154   153    1
    52   148   152   am
    53   150   151    1
    54   152   153    1
    55   153   156    1
    56   104   105    2
    57   104   113   am
    58   133   130    1
    59    81    79    1
    60   113   114    1
    61   156   157    1
    62   130   131    1
    63   130   129    1
    64   131   132    2
    65    78    77    2
    66    77    76    1
    67     1     2    1
    68    32    33    1
    69     5     2    1
    70    79    76    1
    71    79    80    1
    72    33    34    1
    73    33    36    1
    74   114   115    1
    75   157   158    1
    76     4     3    2
    77    35    34    2
    78   160   158   am
    79   129   127   am
    80     2     3    1
    81    76    75    1
    82   128   127    2
    83   158   159    2
    84    80    82    1
    85   116   115    2
    86   127   126    1
    87     3     6   am
    88    31    30    1
    89   115   117   am
    90    71    70    2
    91    70    69    1
    92    30    27    1
    93   126   125    1
    94    29    28    2
    95     6     7    1
    96    25    23   ar
    97   117   118    1
    98   125   119   am
    99    28    27    1
   100    24    23   ar
   101    43    41    1
   102    23    22    1
   103     7    10    1
   104     7     8    1
   105    72    69    1
   106    72    73    1
   107    69    68    1
   108   119   118    1
   109   119   120    2
   110    12    14   ar
   111    12    11   ar
   112    27    26    1
   113   118   121    1
   114    14    16   ar
   115    68    74    1
   116    18     8   am
   117    18    19    1
   118    42    41    1
   119    10    11    1
   120    22    19    1
   121    37    38    1
   122     8     9    2
   123    74    73    1
   124    41    38    1
   125    11    13   ar
   126    40    39    2
   127    19    20    1
   128    38    39    1
   129    16    17    1
   130    16    15   ar
   131   121   122    1
   132    39    44   am
   133   122   124    1
   134   122   123    1
   135    20    21    2
   136    13    15   ar
   137    58    55    1
   138    44    45    1
   139    67    65   ar
   140    45    46    1
   141    45    48    1
   142    54    46   am
   143    54    55    1
   144    50    52   ar
   145    50    49   ar
   146    46    47    2
   147    55    56    1
   148    65    64    1
   149    65    66   ar
   150    48    49    1
   151    52    53   ar
   152    64    63    1
   153    57    56    2
   154    49    51   ar
   155    53    51   ar
   156    63    60    1
   157    60    59    1
   158    60    61    1
   159    61    62    2
