@<TRIPOS>MOLECULE
tmp/2z09A00.pdb
 168 161 0 0 0
SMALL
GASTEIGER

@<TRIPOS>ATOM
      1  N         14.8390   21.1000   32.7120 N.3     8  ALA8       -0.1231
      2  CA        14.8230   22.3360   31.8330 C.3     8  ALA8        0.1694
      3  C         16.2680   22.4750   31.3330 C.2     8  ALA8        0.2592
      4  O         17.2270   22.6730   32.1170 O.2     8  ALA8       -0.2718
      5  CB        14.4290   23.6420   32.6410 C.3     8  ALA8        0.0304
      6  N         16.3970   22.3660   29.9820 N.am    9  TYR9       -0.1962
      7  CA        17.7260   22.3070   29.3640 C.3     9  TYR9        0.1771
      8  C         17.9730   23.4390   28.3730 C.2     9  TYR9        0.2619
      9  O         17.1510   23.6490   27.4290 O.2     9  TYR9       -0.2715
     10  CB        17.7650   20.9740   28.5680 C.3     9  TYR9        0.0574
     11  CG        19.1940   20.6920   28.2160 C.ar    9  TYR9       -0.0198
     12  CD1       20.0020   20.0420   29.1530 C.ar    9  TYR9       -0.0009
     13  CD2       19.7150   20.9350   26.9220 C.ar    9  TYR9       -0.0009
     14  CE1       21.2960   19.5880   28.8420 C.ar    9  TYR9        0.0417
     15  CE2       21.0050   20.4920   26.5990 C.ar    9  TYR9        0.0417
     16  CZ        21.7760   19.8200   27.5740 C.ar    9  TYR9        0.1957
     17  OH        23.0850   19.3530   27.3790 O.3     9  TYR9       -0.2866
     18  N         19.0650   24.1860   28.5820 N.am   10  ASP10      -0.1971
     19  CA        19.4270   25.2800   27.6760 C.3    10  ASP10       0.1709
     20  C         20.7490   25.0860   26.9880 C.2    10  ASP10       0.2293
     21  O         21.1820   25.9460   26.2930 O.2    10  ASP10      -0.2864
     22  CB        19.4170   26.6330   28.4340 C.3    10  ASP10       0.1436
     23  CG        20.6030   26.8030   29.3590 C.2    10  ASP10       0.3671
     24  OD1       21.3020   25.7710   29.6600 O.co2  10  ASP10      -0.2456
     25  OD2       20.8080   27.9560   29.8350 O.co2  10  ASP10      -0.2456
     26  N         23.6590   24.8710   28.2740 N.3    12  SER12      -0.1217
     27  CA        24.8130   25.3790   29.0180 C.3    12  SER12       0.1889
     28  C         25.5390   24.2490   29.8120 C.2    12  SER12       0.2288
     29  O         25.0080   23.1440   29.9230 O.2    12  SER12      -0.2866
     30  CB        24.3510   26.4170   30.0650 C.3    12  SER12       0.2089
     31  OG        23.5380   25.7840   31.0430 O.3    12  SER12      -0.2183
     32  N         23.4400   23.1590   32.5500 N.3    15  ALA15      -0.1245
     33  CA        22.3280   22.3100   32.2010 C.3    15  ALA15       0.1562
     34  C         22.8140   20.8730   31.8710 C.2    15  ALA15       0.2260
     35  O         22.0780   19.9720   32.0360 O.2    15  ALA15      -0.2867
     36  CB        21.5020   22.9280   31.0500 C.3    15  ALA15       0.0290
     37  N         12.8870   19.4590   28.4610 N.3    36  VAL36      -0.1231
     38  CA        12.2950   20.5270   27.6600 C.3    36  VAL36       0.1692
     39  C         13.3030   21.5840   27.3890 C.2    36  VAL36       0.2592
     40  O         14.1930   21.8700   28.2030 O.2    36  VAL36      -0.2718
     41  CB        11.0840   21.2000   28.3190 C.3    36  VAL36       0.0266
     42  CG1       10.0090   20.1220   28.6100 C.3    36  VAL36       0.0020
     43  CG2       11.4290   21.8790   29.6150 C.3    36  VAL36       0.0020
     44  N         13.1730   22.1490   26.1910 N.am   37  HIS37      -0.1962
     45  CA        14.0550   23.2490   25.8030 C.3    37  HIS37       0.1787
     46  C         13.1580   24.2640   25.1430 C.2    37  HIS37       0.2620
     47  O         12.4330   23.9330   24.1890 O.2    37  HIS37      -0.2715
     48  CB        15.1700   22.8310   24.8160 C.3    37  HIS37       0.0785
     49  CG        15.9160   24.0240   24.2960 C.ar   37  HIS37       0.0821
     50  ND1       16.4980   24.9740   25.1410 N.ar   37  HIS37      -0.2267
     51  CD2       16.1820   24.4290   23.0360 C.ar   37  HIS37       0.1154
     52  CE1       17.0940   25.9020   24.3920 C.ar   37  HIS37       0.1986
     53  NE2       16.8940   25.5950   23.1190 N.ar   37  HIS37      -0.2212
     54  N         13.2260   25.5000   25.6260 N.am   38  ALA38      -0.1977
     55  CA        12.4070   26.5890   25.0580 C.3    38  ALA38       0.1597
     56  C         13.2010   27.4380   24.0950 C.2    38  ALA38       0.2287
     57  O         14.4110   27.6650   24.2940 O.2    38  ALA38      -0.2864
     58  CB        11.8920   27.5170   26.1680 C.3    38  ALA38       0.0319
     59  N         16.1680   29.5630   14.0750 N.3    45  ARG45      -0.1241
     60  CA        15.9640   29.4190   15.5320 C.3    45  ARG45       0.1606
     61  C         15.5180   27.9850   15.9070 C.2    45  ARG45       0.2264
     62  O         15.9920   27.4630   16.9090 O.2    45  ARG45      -0.2867
     63  CB        14.9470   30.5000   16.0990 C.3    45  ARG45       0.0562
     64  CG        14.6220   30.4420   17.6940 C.2    45  ARG45       0.0159
     65  CD        15.6880   31.0950   18.7750 C.2    45  ARG45       0.1886
     66  NE        15.5240   30.7950   20.2400 N.pl3  45  ARG45      -0.0578
     67  CZ        16.4010   31.0810   21.1810 C.cat  45  ARG45       0.5393
     68  NH1       17.5630   31.7080   20.8380 N.pl3  45  ARG45       0.1358
     69  NH2       16.1650   30.7880   22.5040 N.pl3  45  ARG45       0.1358
     70  N         11.5130   31.3060   28.6630 N.3    74  PRO74      -0.2116
     71  CA        11.7670   29.9600   29.2040 C.3    74  PRO74       0.1372
     72  C         11.0160   29.5220   30.4560 C.2    74  PRO74       0.2244
     73  O         10.3970   28.4610   30.5060 O.2    74  PRO74      -0.2868
     74  CB        13.2550   29.9440   29.3650 C.3    74  PRO74       0.0268
     75  CG        13.7880   30.8800   28.2250 C.3    74  PRO74       0.0207
     76  CD        12.7540   32.0390   28.3760 C.3    74  PRO74       0.0892
     77  N          8.6060   26.3080   30.8210 N.3    78  ILE78      -0.1245
     78  CA         8.9320   25.2240   31.7860 C.3    78  ILE78       0.1561
     79  C          7.7620   24.9700   32.7210 C.2    78  ILE78       0.2260
     80  O          7.3990   23.8510   32.9890 O.2    78  ILE78      -0.2867
     81  CB        10.1970   25.6490   32.5890 C.3    78  ILE78       0.0252
     82  CG1       11.4080   25.7550   31.6450 C.3    78  ILE78       0.0019
     83  CG2       10.4840   24.6240   33.7550 C.3    78  ILE78       0.0019
     84  CD1       12.5420   26.5070   32.2060 C.3    78  ILE78       0.0001
     85  N         17.0110   22.0810   37.2200 N.3    92  MET92      -0.1230
     86  CA        17.5230   23.0210   36.2270 C.3    92  MET92       0.1702
     87  C         18.8250   23.5740   36.7750 C.2    92  MET92       0.2593
     88  O         19.1330   23.3410   37.9730 O.2    92  MET92      -0.2718
     89  CB        16.4950   24.1900   35.9770 C.3    92  MET92       0.0401
     90  CG        16.2210   24.9690   37.2830 C.3    92  MET92       0.0596
     91  SD        14.6470   25.9580   37.1110 S.3    92  MET92      -0.1393
     92  CE        14.9970   26.9420   35.5920 C.3    92  MET92       0.0692
     93  N         19.6110   24.2360   35.9040 N.am   93  GLY93      -0.1942
     94  CA        20.8630   24.8030   36.4460 C.3    93  GLY93       0.2014
     95  C         20.5900   26.1050   37.2850 C.2    93  GLY93       0.2640
     96  O         19.5210   26.7860   37.1820 O.2    93  GLY93      -0.2714
     97  N         21.5700   26.4090   38.1380 N.am   94  THR94      -0.1936
     98  CA        21.4610   27.7030   38.8650 C.3    94  THR94       0.2028
     99  C         21.6960   28.8360   37.8700 C.2    94  THR94       0.2642
    100  O         21.1630   29.9270   38.0430 O.2    94  THR94      -0.2714
    101  CB        22.5350   27.8050   39.9440 C.3    94  THR94       0.1808
    102  OG1       23.8070   27.5030   39.3560 O.3    94  THR94      -0.2208
    103  CG2       22.2850   26.8340   41.0560 C.3    94  THR94       0.0379
    104  N         22.5080   28.5740   36.8440 N.am   95  ARG95      -0.1963
    105  CA        22.8300   29.6310   35.8300 C.3    95  ARG95       0.1729
    106  C         22.7950   28.9170   34.5190 C.2    95  ARG95       0.2617
    107  O         22.6040   27.6770   34.4870 O.2    95  ARG95      -0.2715
    108  CB        24.1890   30.2640   36.0930 C.3    95  ARG95       0.0348
    109  CG        24.2180   31.0470   37.4510 C.3    95  ARG95       0.0492
    110  CD        24.4970   32.5610   37.2750 C.3    95  ARG95       0.2205
    111  NE        23.4160   33.2970   36.4970 N.pl3  95  ARG95      -0.0865
    112  CZ        23.6840   34.2280   35.6400 C.cat  95  ARG95       0.5346
    113  NH1       24.9930   34.5630   35.3850 N.pl3  95  ARG95       0.1354
    114  NH2       22.7130   34.9410   35.1060 N.pl3  95  ARG95       0.1354
    115  N         22.9890   29.6750   33.4450 N.am   96  GLY96      -0.1940
    116  CA        22.8180   29.0920   32.1110 C.3    96  GLY96       0.2014
    117  C         23.7010   29.8250   31.0810 C.2    96  GLY96       0.2639
    118  O         24.6920   30.3730   31.4170 O.2    96  GLY96      -0.2714
    119  N         23.3090   29.8200   29.8230 N.am   97  LEU97      -0.1963
    120  CA        24.1260   30.4420   28.7580 C.3    97  LEU97       0.1728
    121  C         24.3150   31.9080   28.8940 C.2    97  LEU97       0.2617
    122  O         25.2760   32.4920   28.3970 O.2    97  LEU97      -0.2715
    123  CB        23.5030   30.1640   27.3870 C.3    97  LEU97       0.0311
    124  CG        23.5090   28.7310   26.8930 C.3    97  LEU97       0.0022
    125  CD1       22.8280   28.7230   25.4550 C.3    97  LEU97       0.0001
    126  CD2       24.9440   28.1360   26.7780 C.3    97  LEU97       0.0001
    127  N         23.3590   32.5720   29.5070 N.am   98  GLY98      -0.1940
    128  CA        23.5280   33.9970   29.5970 C.3    98  GLY98       0.2014
    129  C         24.2520   34.4480   30.8640 C.2    98  GLY98       0.2638
    130  O         24.2460   35.6550   31.1400 O.2    98  GLY98      -0.2714
    131  N         24.8410   33.5280   31.6180 N.am   99  ALA99      -0.1977
    132  CA        25.4810   33.9030   32.8930 C.3    99  ALA99       0.1597
    133  C         26.5920   34.9340   32.7940 C.2    99  ALA99       0.2287
    134  O         27.5410   34.7770   31.9860 O.2    99  ALA99      -0.2864
    135  CB        26.0310   32.6950   33.5780 C.3    99  ALA99       0.0319
    136  N         23.9970   37.9240   38.7260 N.3   103  LEU103     -0.1245
    137  CA        22.7480   37.5950   39.4050 C.3   103  LEU103      0.1561
    138  C         23.0370   36.5770   40.4850 C.2   103  LEU103      0.2260
    139  O         23.9910   35.8270   40.3820 O.2   103  LEU103     -0.2867
    140  CB        21.7390   36.9570   38.4480 C.3   103  LEU103      0.0270
    141  CG        21.0550   37.9560   37.4240 C.3   103  LEU103      0.0019
    142  CD1       20.2820   37.1310   36.4430 C.3   103  LEU103      0.0001
    143  CD2       20.1330   38.9900   38.1600 C.3   103  LEU103      0.0001
    144  N         20.0450   32.6150   38.0500 N.3   106  GLY106     -0.1210
    145  CA        19.5580   33.1270   36.7810 C.3   106  GLY106      0.1956
    146  C         18.1040   33.4890   36.7940 C.2   106  GLY106      0.2613
    147  O         17.3470   32.9370   37.6250 O.2   106  GLY106     -0.2717
    148  N         17.7230   34.4000   35.9260 N.am  107  SER107     -0.1938
    149  CA        16.3490   34.8790   35.9970 C.3   107  SER107      0.2055
    150  C         15.2940   33.8310   35.6820 C.2   107  SER107      0.2643
    151  O         14.1940   33.8950   36.1940 O.2   107  SER107     -0.2714
    152  CB        16.1330   36.1350   35.1180 C.3   107  SER107      0.2130
    153  OG        16.1600   35.8590   33.7800 O.3   107  SER107     -0.2179
    154  N         15.6420   32.8640   34.8540 N.am  108  GLN108     -0.1963
    155  CA        14.5790   31.8660   34.5380 C.3   108  GLN108      0.1733
    156  C         14.4360   30.9120   35.7470 C.2   108  GLN108      0.2617
    157  O         13.3370   30.5490   36.1320 O.2   108  GLN108     -0.2715
    158  CB        14.9540   31.0510   33.2700 C.3   108  GLN108      0.0408
    159  CG        15.1690   31.9550   31.9680 C.3   108  GLN108      0.0908
    160  CD        13.9920   32.8690   31.6620 C.2   108  GLN108      0.2608
    161  OE1       12.8510   32.5440   31.9000 O.2   108  GLN108     -0.2717
    162  NE2       14.2910   34.0460   31.1050 N.am  108  GLN108     -0.0878
    163  N         15.5680   30.5450   36.3810 N.am  109  SER109     -0.1950
    164  CA        15.5110   29.7540   37.6200 C.3   109  SER109      0.1924
    165  C         14.7670   30.5710   38.7170 C.2   109  SER109      0.2314
    166  O         13.9470   29.9960   39.4630 O.2   109  SER109     -0.2863
    167  CB        16.9550   29.4450   38.1360 C.3   109  SER109      0.2116
    168  OG        17.5030   28.4610   37.2840 O.3   109  SER109     -0.2180
@<TRIPOS>BOND
     1    59    60    1
     2    60    61    1
     3    60    63    1
     4    61    62    2
     5    63    64    1
     6    64    65    2
     7    65    66    1
     8    66    67    2
     9    68    67    1
    10    67    69    1
    11    51    53   ar
    12    51    49   ar
    13    53    52   ar
    14    56    57    2
    15    56    55    1
    16    47    46    2
    17    49    48    1
    18    49    50   ar
    19    52    50   ar
    20    48    45    1
    21    55    54    1
    22    55    58    1
    23    46    54   am
    24    46    45    1
    25   125   124    1
    26    45    44    1
    27    44    39   am
    28    21    20    2
    29    15    13   ar
    30    15    16   ar
    31   126   124    1
    32   124   123    1
    33    13    11   ar
    34    20    19    1
    35    17    16    1
    36   123   120    1
    37    39    38    1
    38    39    40    2
    39     9     8    2
    40    16    14   ar
    41    38    41    1
    42    38    37    1
    43    19    22    1
    44    19    18    1
    45    11    10    1
    46    11    12   ar
    47    75    76    1
    48    75    74    1
    49    26    27    1
    50    41    42    1
    51    41    43    1
    52     8    18   am
    53     8     7    1
    54    76    70    1
    55   122   121    2
    56    22    23    1
    57    10     7    1
    58    70    71    1
    59   120   121    1
    60   120   119    1
    61    14    12   ar
    62   121   127   am
    63    27    28    1
    64    27    30    1
    65    71    74    1
    66    71    72    1
    67    23    24   ar
    68    23    25   ar
    69     7     6    1
    70   127   128    1
    71   128   129    1
    72    28    29    2
    73   119   117   am
    74     6     3   am
    75    30    31    1
    76    72    73    2
    77    77    78    1
    78   129   130    2
    79   129   131   am
    80    36    33    1
    81   117   118    2
    82   117   116    1
    83   162   160   am
    84     3     2    1
    85     3     4    2
    86   131   132    1
    87    82    84    1
    88    82    81    1
    89   160   161    2
    90   160   159    1
    91    78    81    1
    92    78    79    1
    93     2     5    1
    94     2     1    1
    95    34    35    2
    96    34    33    1
    97   159   158    1
    98   134   133    2
    99   116   115    1
   100    33    32    1
   101    81    83    1
   102    79    80    2
   103   133   132    1
   104   132   135    1
   105   158   155    1
   106   115   106   am
   107   153   152    1
   108   107   106    2
   109   106   105    1
   110   155   154    1
   111   155   156    1
   112   154   150   am
   113   114   112    1
   114   152   149    1
   115   113   112    1
   116    92    91    1
   117   112   111    2
   118   150   149    1
   119   150   151    2
   120   156   157    2
   121   156   163   am
   122   105   108    1
   123   105   104    1
   124    93    94    1
   125    93    87   am
   126   148   149    1
   127   148   146   am
   128    89    86    1
   129    89    90    1
   130   108   109    1
   131    86    87    1
   132    86    85    1
   133   163   164    1
   134   142   141    1
   135    94    95    1
   136   111   110    1
   137    87    88    2
   138   145   146    1
   139   145   144    1
   140   146   147    2
   141   104    99   am
   142    91    90    1
   143    96    95    2
   144   110   109    1
   145   168   167    1
   146    95    97   am
   147   141   143    1
   148   141   140    1
   149   164   167    1
   150   164   165    1
   151    99   100    2
   152    99    98    1
   153    97    98    1
   154   140   137    1
   155   165   166    2
   156   136   137    1
   157    98   101    1
   158   102   101    1
   159   137   138    1
   160   101   103    1
   161   139   138    2
