@<TRIPOS>MOLECULE
tmp/2z0jA00.pdb
 122 112 0 0 0
SMALL
GASTEIGER

@<TRIPOS>ATOM
      1  N         21.8090   31.5650   80.6430 N.3    23  ASP23      -0.1239
      2  CA        22.2180   30.1340   80.7480 C.3    23  ASP23       0.1674
      3  C         21.5510   29.7610   82.0650 C.2    23  ASP23       0.2266
      4  O         22.1560   29.7830   83.1430 O.2    23  ASP23      -0.2867
      5  CB        23.7430   29.9540   80.7830 C.3    23  ASP23       0.1410
      6  CG        24.1150   28.5110   80.9860 C.2    23  ASP23       0.3668
      7  OD1       23.2330   27.7140   81.2430 O.co2  23  ASP23      -0.2456
      8  OD2       25.3410   28.2540   80.9420 O.co2  23  ASP23      -0.2456
      9  N         20.1070   27.0400   83.3690 N.3    25  ILE25      -0.1231
     10  CA        20.5810   25.8540   84.1000 C.3    25  ILE25       0.1692
     11  C         22.0490   25.7250   83.5920 C.2    25  ILE25       0.2592
     12  O         22.2960   25.0780   82.6030 O.2    25  ILE25      -0.2718
     13  CB        19.7590   24.5660   83.6960 C.3    25  ILE25       0.0266
     14  CG1       18.3270   24.7280   84.2080 C.3    25  ILE25       0.0019
     15  CG2       20.3630   23.3180   84.3830 C.3    25  ILE25       0.0020
     16  CD1       17.4120   23.5900   83.7850 C.3    25  ILE25       0.0001
     17  N         23.0450   26.2910   84.2770 N.am   26  ARG26      -0.1966
     18  CA        22.8940   27.0040   85.5260 C.3    26  ARG26       0.1729
     19  C         23.7040   28.2950   85.5790 C.2    26  ARG26       0.2616
     20  O         23.4450   29.1310   86.4400 O.2    26  ARG26      -0.2715
     21  CB        23.4310   26.1310   86.6870 C.3    26  ARG26       0.0348
     22  CG        22.5840   24.8760   87.0530 C.3    26  ARG26       0.0492
     23  CD        23.3570   23.9000   87.9610 C.3    26  ARG26       0.2205
     24  NE        24.4780   23.2960   87.2280 N.pl3  26  ARG26      -0.0865
     25  CZ        25.4250   22.5930   87.8290 C.cat  26  ARG26       0.5346
     26  NH1       26.4340   22.1220   87.0960 N.pl3  26  ARG26       0.1354
     27  NH2       25.3590   22.2960   89.1240 N.pl3  26  ARG26       0.1354
     28  N         24.6650   28.4940   84.6830 N.am   27  ALA27      -0.1977
     29  CA        25.5720   29.6190   84.9040 C.3    27  ALA27       0.1597
     30  C         25.0290   30.9850   85.2120 C.2    27  ALA27       0.2287
     31  O         25.5700   31.6420   86.1120 O.2    27  ALA27      -0.2864
     32  CB        26.5620   29.7140   83.7300 C.3    27  ALA27       0.0319
     33  N         32.6260   24.6130   86.2560 N.3    64  GLU64      -0.1245
     34  CA        32.3650   23.2200   85.9330 C.3    64  GLU64       0.1567
     35  C         32.8110   22.8290   84.5660 C.2    64  GLU64       0.2260
     36  O         32.9520   23.6940   83.7110 O.2    64  GLU64      -0.2867
     37  CB        30.8480   22.9630   86.0090 C.3    64  GLU64       0.0388
     38  CG        29.9170   23.8150   85.0940 C.3    64  GLU64       0.1160
     39  CD        29.8940   23.3930   83.5930 C.2    64  GLU64       0.3649
     40  OE1       30.1570   22.2270   83.2170 O.co2  64  GLU64      -0.2457
     41  OE2       29.5530   24.2400   82.7570 O.co2  64  GLU64      -0.2457
     42  N         31.4630   19.3770   82.2860 N.3    66  GLY66      -0.1210
     43  CA        30.4940   18.2710   82.3860 C.3    66  GLY66       0.1956
     44  C         29.5340   18.4500   83.5680 C.2    66  GLY66       0.2612
     45  O         28.9320   17.4910   84.0680 O.2    66  GLY66      -0.2717
     46  N         29.3480   19.7060   83.9860 N.am   67  GLY67      -0.1956
     47  CA        28.5060   20.0170   85.1290 C.3    67  GLY67       0.1869
     48  C         29.1300   19.8060   86.5040 C.2    67  GLY67       0.2309
     49  O         28.5550   20.1760   87.5210 O.2    67  GLY67      -0.2863
     50  N         29.0440   24.5860   90.0030 N.3    77  ASN77      -0.1240
     51  CA        28.1430   25.5510   89.3860 C.3    77  ASN77       0.1653
     52  C         26.7540   25.4700   89.9490 C.2    77  ASN77       0.2266
     53  O         25.7850   25.8700   89.2620 O.2    77  ASN77      -0.2867
     54  CB        28.1220   25.3320   87.8460 C.3    77  ASN77       0.1155
     55  CG        27.6000   26.5520   87.0520 C.2    77  ASN77       0.2627
     56  OD1       27.7240   27.6850   87.5180 O.2    77  ASN77      -0.2716
     57  ND2       27.0810   26.2950   85.8520 N.am   77  ASN77      -0.0877
     58  N         32.4800   28.3210   82.9450 N.3    96  THR96      -0.1203
     59  CA        31.4970   27.2360   82.7540 C.3    96  THR96       0.1994
     60  C         31.4700   26.8330   81.2780 C.2    96  THR96       0.2619
     61  O         32.0670   27.4660   80.4300 O.2    96  THR96      -0.2717
     62  CB        30.0760   27.6160   83.2740 C.3    96  THR96       0.1784
     63  OG1       29.4710   28.5940   82.3720 O.3    96  THR96      -0.2211
     64  CG2       30.1770   28.1250   84.6990 C.3    96  THR96       0.0376
     65  N         30.7950   25.7330   80.9830 N.am   97  THR97      -0.1938
     66  CA        30.7220   25.2390   79.6260 C.3    97  THR97       0.2028
     67  C         30.0290   26.1560   78.5940 C.2    97  THR97       0.2642
     68  O         30.5450   26.3830   77.5140 O.2    97  THR97      -0.2714
     69  CB        30.0230   23.8180   79.6460 C.3    97  THR97       0.1808
     70  OG1       30.7460   22.9330   80.5410 O.3    97  THR97      -0.2208
     71  CG2       29.9950   23.1870   78.2430 C.3    97  THR97       0.0379
     72  N         28.8710   26.6790   78.9350 N.am   98  ASN98      -0.1971
     73  CA        28.1720   27.4410   77.9100 C.3    98  ASN98       0.1688
     74  C         28.0650   28.9100   78.2020 C.2    98  ASN98       0.2292
     75  O         28.3860   29.7470   77.3510 O.2    98  ASN98      -0.2864
     76  CB        26.8040   26.7720   77.7630 C.3    98  ASN98       0.1181
     77  CG        26.9380   25.2400   77.5570 C.2    98  ASN98       0.2629
     78  OD1       27.5390   24.7820   76.5760 O.2    98  ASN98      -0.2716
     79  ND2       26.4110   24.4670   78.4690 N.am   98  ASN98      -0.0877
     80  N         23.6410   24.7500   74.0780 N.3   143  LYS143     -0.1231
     81  CA        24.7530   23.8410   74.3170 C.3   143  LYS143      0.1693
     82  C         25.3260   23.3740   72.9690 C.2   143  LYS143      0.2591
     83  O         24.6130   22.7690   72.1430 O.2   143  LYS143     -0.2718
     84  CB        24.2800   22.6520   75.1170 C.3   143  LYS143      0.0285
     85  CG        25.4130   21.5920   75.2860 C.3   143  LYS143      0.0035
     86  CD        24.9360   20.3950   76.1190 C.3   143  LYS143      0.0206
     87  CE        26.0500   19.3490   76.3330 C.3   143  LYS143      0.1093
     88  NZ        26.3530   18.6020   75.0480 N.3   143  LYS143     -0.1314
     89  N         26.5990   23.7000   72.7600 N.am  144  GLU144     -0.1979
     90  CA        27.3180   23.2670   71.5560 C.3   144  GLU144      0.1602
     91  C         26.5710   23.3320   70.2430 C.2   144  GLU144      0.2287
     92  O         26.5140   22.3560   69.4510 O.2   144  GLU144     -0.2864
     93  CB        27.7930   21.8430   71.7720 C.3   144  GLU144      0.0415
     94  CG        28.7820   21.7300   72.9440 C.3   144  GLU144      0.1163
     95  CD        29.1340   20.2780   73.2390 C.2   144  GLU144      0.3649
     96  OE1       29.7800   19.6400   72.3780 O.co2 144  GLU144     -0.2457
     97  OE2       28.7510   19.7760   74.3250 O.co2 144  GLU144     -0.2457
     98  N         19.2380   20.1990   79.6250 N.3   196  ALA196     -0.1245
     99  CA        20.1090   20.6300   80.6990 C.3   196  ALA196      0.1562
    100  C         19.7170   20.0110   82.0180 C.2   196  ALA196      0.2260
    101  O         20.5920   19.5740   82.7910 O.2   196  ALA196     -0.2867
    102  CB        20.0920   22.1340   80.8110 C.3   196  ALA196      0.0290
    103  N         20.6590   16.3490   81.9470 N.3   199  ALA199     -0.1231
    104  CA        22.1100   16.1660   82.0900 C.3   199  ALA199      0.1694
    105  C         22.5110   16.2830   83.5470 C.2   199  ALA199      0.2591
    106  O         23.4450   15.5620   83.9960 O.2   199  ALA199     -0.2718
    107  CB        22.8880   17.1890   81.2270 C.3   199  ALA199      0.0304
    108  N         21.8480   17.1260   84.3260 N.am  200  LEU200     -0.1980
    109  CA        22.1650   17.2080   85.7560 C.3   200  LEU200      0.1596
    110  C         21.7600   15.8980   86.4540 C.2   200  LEU200      0.2287
    111  O         22.4880   15.3980   87.3320 O.2   200  LEU200     -0.2864
    112  CB        21.5210   18.4200   86.4520 C.3   200  LEU200      0.0297
    113  CG        22.0800   19.7730   85.9670 C.3   200  LEU200      0.0022
    114  CD1       21.4270   20.8890   86.8080 C.3   200  LEU200      0.0001
    115  CD2       23.6050   19.8250   86.0230 C.3   200  LEU200      0.0001
    116  N         24.2770   13.1110   86.5060 N.3   203  VAL203     -0.1245
    117  CA        25.3950   13.2280   87.4400 C.3   203  VAL203      0.1561
    118  C         25.0240   13.5940   88.8540 C.2   203  VAL203      0.2260
    119  O         25.8590   14.0610   89.6180 O.2   203  VAL203     -0.2867
    120  CB        26.4940   14.2160   86.8900 C.3   203  VAL203      0.0252
    121  CG1       27.0410   13.6950   85.6270 C.3   203  VAL203      0.0019
    122  CG2       25.9300   15.6120   86.6240 C.3   203  VAL203      0.0019
@<TRIPOS>BOND
     1    92    91    2
     2    91    90    1
     3    90    93    1
     4    90    89    1
     5    93    94    1
     6    83    82    2
     7    96    95   ar
     8    89    82   am
     9    94    95    1
    10    82    81    1
    11    95    97   ar
    12    80    81    1
    13    81    84    1
    14    88    87    1
    15    84    85    1
    16    85    86    1
    17    86    87    1
    18    78    77    2
    19    75    74    2
    20    68    67    2
    21    77    76    1
    22    77    79   am
    23    76    73    1
    24    73    74    1
    25    73    72    1
    26    71    69    1
    27    67    72   am
    28    67    66    1
    29    98    99    1
    30    66    69    1
    31    66    65    1
    32    69    70    1
    33    61    60    2
    34     1     2    1
    35    99   102    1
    36    99   100    1
    37     2     5    1
    38     2     3    1
    39     5     6    1
    40     8     6   ar
    41    65    60   am
    42     6     7   ar
    43   107   104    1
    44    60    59    1
    45   103   104    1
    46   100   101    2
    47     3     4    2
    48   104   105    1
    49    42    43    1
    50    63    62    1
    51    43    44    1
    52    12    11    2
    53    59    58    1
    54    59    62    1
    55    41    39   ar
    56    40    39   ar
    57    62    64    1
    58     9    10    1
    59   105   106    2
    60   105   108   am
    61    44    46   am
    62    44    45    2
    63    11    10    1
    64    11    17   am
    65    39    38    1
    66    13    10    1
    67    13    14    1
    68    13    15    1
    69    36    35    2
    70    32    29    1
    71    16    14    1
    72    46    47    1
    73    17    18    1
    74   108   109    1
    75    35    34    1
    76    28    29    1
    77    28    19   am
    78    29    30    1
    79    38    37    1
    80    47    48    1
    81    30    31    2
    82    18    19    1
    83    18    21    1
    84    19    20    2
    85   121   120    1
    86   109   112    1
    87   109   110    1
    88    57    55   am
    89    34    37    1
    90    34    33    1
    91   113   115    1
    92   113   112    1
    93   113   114    1
    94   110   111    2
    95    48    49    2
    96   116   117    1
    97   122   120    1
    98    21    22    1
    99   120   117    1
   100    55    56    2
   101    55    54    1
   102    22    23    1
   103    26    25    1
   104    24    25    2
   105    24    23    1
   106   117   118    1
   107    25    27    1
   108    54    51    1
   109   118   119    2
   110    53    52    2
   111    51    52    1
   112    51    50    1
