@<TRIPOS>MOLECULE
tmp/2z0pA00.pdb
 120 114 0 0 0
SMALL
GASTEIGER

@<TRIPOS>ATOM
      1  N        -24.0370   27.6550   89.2330 N.3    11  LYS11      -0.1245
      2  CA       -24.7670   27.2670   88.0210 C.3    11  LYS11       0.1561
      3  C        -25.8540   26.2310   88.2290 C.2    11  LYS11       0.2260
      4  O        -25.7570   25.3750   89.1040 O.2    11  LYS11      -0.2867
      5  CB       -23.8050   26.7400   86.9530 C.3    11  LYS11       0.0271
      6  CG       -22.8410   25.6940   87.4630 C.3    11  LYS11       0.0035
      7  CD       -22.3980   24.7500   86.3580 C.3    11  LYS11       0.0206
      8  CE       -23.5270   23.7990   85.9690 C.3    11  LYS11       0.1093
      9  NZ       -23.0930   22.8650   84.9080 N.3    11  LYS11      -0.1314
     10  N        -28.0700   23.0040   86.9030 N.3    13  SER13      -0.1202
     11  CA       -27.7990   21.8470   86.0630 C.3    13  SER13       0.2020
     12  C        -28.5290   22.0590   84.7410 C.2    13  SER13       0.2619
     13  O        -29.6590   22.5560   84.7140 O.2    13  SER13      -0.2717
     14  CB       -28.3010   20.5590   86.7290 C.3    13  SER13       0.2103
     15  OG       -27.9930   19.4120   85.9400 O.3    13  SER13      -0.2182
     16  N        -27.8750   21.6930   83.6440 N.am   14  GLN14      -0.1965
     17  CA       -28.4730   21.8410   82.3230 C.3    14  GLN14       0.1733
     18  C        -29.4750   20.7170   82.0640 C.2    14  GLN14       0.2616
     19  O        -30.1090   20.6760   81.0090 O.2    14  GLN14      -0.2715
     20  CB       -27.3870   21.8240   81.2400 C.3    14  GLN14       0.0408
     21  CG       -26.2680   22.8330   81.4550 C.3    14  GLN14       0.0908
     22  CD       -25.4140   23.0310   80.2170 C.2    14  GLN14       0.2608
     23  OE1      -25.8720   23.5950   79.2250 O.2    14  GLN14      -0.2717
     24  NE2      -24.1670   22.5640   80.2660 N.am   14  GLN14      -0.0878
     25  N        -29.6170   19.8130   83.0330 N.am   15  GLN15      -0.1963
     26  CA       -30.5370   18.6820   82.9110 C.3    15  GLN15       0.1733
     27  C        -30.5270   18.0640   81.5210 C.2    15  GLN15       0.2616
     28  O        -31.5850   17.7760   80.9620 O.2    15  GLN15      -0.2715
     29  CB       -31.9700   19.1060   83.2340 C.3    15  GLN15       0.0408
     30  CG       -32.2570   19.3250   84.6990 C.3    15  GLN15       0.0908
     31  CD       -33.7300   19.5740   84.9610 C.2    15  GLN15       0.2608
     32  OE1      -34.2880   20.5960   84.5510 O.2    15  GLN15      -0.2717
     33  NE2      -34.3720   18.6330   85.6420 N.am   15  GLN15      -0.0878
     34  N        -29.3430   17.8760   80.9520 N.am   16  LYS16      -0.1963
     35  CA       -29.2520   17.2770   79.6310 C.3    16  LYS16       0.1728
     36  C        -29.9860   15.9410   79.6810 C.2    16  LYS16       0.2616
     37  O        -30.9310   15.7040   78.9270 O.2    16  LYS16      -0.2715
     38  CB       -27.7880   17.0610   79.2360 C.3    16  LYS16       0.0311
     39  CG       -27.0220   18.3430   78.9630 C.3    16  LYS16       0.0038
     40  CD       -25.6700   18.0400   78.3540 C.3    16  LYS16       0.0206
     41  CE       -25.0150   19.2970   77.8040 C.3    16  LYS16       0.1093
     42  NZ       -23.7410   18.9830   77.0880 N.3    16  LYS16      -0.1314
     43  N        -29.5530   15.0840   80.6000 N.am   17  LYS17      -0.1977
     44  CA       -30.1480   13.7710   80.7770 C.3    17  LYS17       0.1596
     45  C        -31.5430   13.8500   81.3900 C.2    17  LYS17       0.2287
     46  O        -31.9910   14.9040   81.8370 O.2    17  LYS17      -0.2864
     47  CB       -29.2490   12.9200   81.6720 C.3    17  LYS17       0.0298
     48  CG       -27.8450   12.7120   81.1280 C.3    17  LYS17       0.0038
     49  CD       -26.9510   12.0420   82.1600 C.3    17  LYS17       0.0206
     50  CE       -25.5420   11.8420   81.6250 C.3    17  LYS17       0.1093
     51  NZ       -24.6340   11.2860   82.6670 N.3    17  LYS17      -0.1314
     52  N        -32.3950   11.5760   83.8040 N.3    19  THR19      -0.1203
     53  CA       -32.0290   11.2650   85.1830 C.3    19  THR19       0.1994
     54  C        -31.1590   12.3540   85.8100 C.2    19  THR19       0.2619
     55  O        -30.0990   12.0620   86.3720 O.2    19  THR19      -0.2717
     56  CB       -31.2440    9.9290   85.2610 C.3    19  THR19       0.1784
     57  OG1      -30.1660    9.9440   84.3120 O.3    19  THR19      -0.2211
     58  CG2      -32.1570    8.7490   84.9690 C.3    19  THR19       0.0376
     59  N        -31.5970   13.6070   85.7150 N.am   20  SER20      -0.1938
     60  CA       -30.8210   14.7030   86.2860 C.3    20  SER20       0.2040
     61  C        -31.6420   15.6730   87.1140 C.2    20  SER20       0.2485
     62  O        -32.6670   16.1900   86.6680 O.2    20  SER20      -0.2729
     63  CB       -30.0700   15.4690   85.1920 C.3    20  SER20       0.2129
     64  OG       -28.9070   14.7630   84.8010 O.3    20  SER20      -0.2179
     65  N        -31.1880   15.9280   88.3450 N.am   21  PRO21      -0.2726
     66  CA       -31.8390   16.8350   89.2940 C.3    21  PRO21       0.1402
     67  C        -31.6360   18.2890   88.8960 C.2    21  PRO21       0.2269
     68  O        -30.7310   18.6090   88.1280 O.2    21  PRO21      -0.2865
     69  CB       -31.1390   16.5200   90.6150 C.3    21  PRO21       0.0296
     70  CG       -30.5610   15.1290   90.3960 C.3    21  PRO21       0.0237
     71  CD       -30.0810   15.2030   88.9910 C.3    21  PRO21       0.0939
     72  N        -30.2960   20.9250   90.3900 N.3    23  ASN23      -0.1240
     73  CA       -29.4560   21.4370   91.4720 C.3    23  ASN23       0.1653
     74  C        -28.4030   22.4590   91.0390 C.2    23  ASN23       0.2266
     75  O        -28.0690   22.5700   89.8600 O.2    23  ASN23      -0.2867
     76  CB       -28.7640   20.2770   92.1820 C.3    23  ASN23       0.1155
     77  CG       -28.1430   19.2970   91.2140 C.2    23  ASN23       0.2627
     78  OD1      -27.7040   19.6720   90.1280 O.2    23  ASN23      -0.2716
     79  ND2      -28.0880   18.0310   91.6100 N.am   23  ASN23      -0.0877
     80  N        -24.4600   24.1840   91.5820 N.3    25  LYS25      -0.1245
     81  CA       -23.1030   23.9090   92.0180 C.3    25  LYS25       0.1561
     82  C        -22.1620   25.0840   91.8210 C.2    25  LYS25       0.2260
     83  O        -22.2890   25.8420   90.8610 O.2    25  LYS25      -0.2867
     84  CB       -22.5600   22.6860   91.2820 C.3    25  LYS25       0.0271
     85  CG       -23.2450   21.3900   91.7070 C.3    25  LYS25       0.0035
     86  CD       -22.4950   20.1520   91.2290 C.3    25  LYS25       0.0206
     87  CE       -22.8030   18.9620   92.1270 C.3    25  LYS25       0.1093
     88  NZ       -24.2710   18.7730   92.3130 N.3    25  LYS25      -0.1314
     89  N        -18.8770   26.5950   90.6850 N.3    27  ARG27      -0.1245
     90  CA       -17.8920   26.1820   89.6950 C.3    27  ARG27       0.1563
     91  C        -16.9650   27.3290   89.3720 C.2    27  ARG27       0.2260
     92  O        -17.3060   28.4810   89.5980 O.2    27  ARG27      -0.2867
     93  CB       -18.5980   25.7260   88.4060 C.3    27  ARG27       0.0307
     94  CG       -19.2800   24.3780   88.5000 C.3    27  ARG27       0.0489
     95  CD       -18.2350   23.2980   88.5060 C.3    27  ARG27       0.2205
     96  NE       -18.7890   21.9620   88.6950 N.pl3  27  ARG27      -0.0865
     97  CZ       -19.4360   21.5630   89.7870 C.cat  27  ARG27       0.5346
     98  NH1      -19.6220   22.4030   90.7970 N.pl3  27  ARG27       0.1354
     99  NH2      -19.8860   20.3190   89.8700 N.pl3  27  ARG27       0.1354
    100  N        -16.1620   25.2040   82.6710 N.3    38  TYR38      -0.1241
    101  CA       -16.2180   25.2850   84.1130 C.3    38  TYR38       0.1605
    102  C        -15.7050   24.0360   84.8030 C.2    38  TYR38       0.2264
    103  O        -15.9250   22.9120   84.3480 O.2    38  TYR38      -0.2867
    104  CB       -17.6360   25.6060   84.5780 C.3    38  TYR38       0.0534
    105  CG       -18.7140   24.7340   83.9910 C.ar   38  TYR38      -0.0201
    106  CD1      -19.1110   24.8770   82.6560 C.ar   38  TYR38      -0.0009
    107  CD2      -19.3780   23.8030   84.7820 C.ar   38  TYR38      -0.0009
    108  CE1      -20.1500   24.1150   82.1300 C.ar   38  TYR38       0.0417
    109  CE2      -20.4140   23.0370   84.2730 C.ar   38  TYR38       0.0417
    110  CZ       -20.8030   23.1940   82.9490 C.ar   38  TYR38       0.1957
    111  OH       -21.8590   22.4510   82.4610 O.3    38  TYR38      -0.2866
    112  N        -15.6330   20.1640   84.5110 N.3    52  LYS52      -0.1245
    113  CA       -16.9480   19.5770   84.6910 C.3    52  LYS52       0.1561
    114  C        -17.8660   19.9250   83.5320 C.2    52  LYS52       0.2260
    115  O        -18.9290   19.3250   83.3640 O.2    52  LYS52      -0.2867
    116  CB       -17.5540   20.0580   86.0130 C.3    52  LYS52       0.0271
    117  CG       -17.3140   19.1260   87.1930 C.3    52  LYS52       0.0035
    118  CD       -18.4120   18.0750   87.2500 C.3    52  LYS52       0.0206
    119  CE       -18.3770   17.2390   88.5270 C.3    52  LYS52       0.1093
    120  NZ       -19.5600   16.3190   88.6040 N.3    52  LYS52      -0.1314
@<TRIPOS>BOND
     1    42    41    1
     2    41    40    1
     3    40    39    1
     4    37    36    2
     5    39    38    1
     6    23    22    2
     7    38    35    1
     8    35    36    1
     9    35    34    1
    10    36    43   am
    11    22    24   am
    12    22    21    1
    13    43    44    1
    14    44    45    1
    15    44    47    1
    16    34    27   am
    17    28    27    2
    18    19    18    2
    19    48    47    1
    20    48    49    1
    21    20    21    1
    22    20    17    1
    23    45    46    2
    24    27    26    1
    25    50    49    1
    26    50    51    1
    27    18    17    1
    28    18    25   am
    29   108   106   ar
    30   108   110   ar
    31    17    16    1
    32   111   110    1
    33   106   105   ar
    34   100   101    1
    35    26    25    1
    36    26    29    1
    37   110   109   ar
    38    29    30    1
    39   115   114    2
    40   114   113    1
    41    16    12   am
    42    52    53    1
    43   105   104    1
    44   105   107   ar
    45   101   104    1
    46   101   102    1
    47   109   107   ar
    48    57    56    1
    49   103   102    2
    50   112   113    1
    51    32    31    2
    52   113   116    1
    53    30    31    1
    54    13    12    2
    55    12    11    1
    56    64    63    1
    57     9     8    1
    58    31    33   am
    59    58    56    1
    60    53    56    1
    61    53    54    1
    62    63    60    1
    63    59    54   am
    64    59    60    1
    65    54    55    2
    66    15    14    1
    67     8     7    1
    68   116   117    1
    69    11    14    1
    70    11    10    1
    71    60    61    1
    72     7     6    1
    73    62    61    2
    74     5     6    1
    75     5     2    1
    76    61    65   am
    77   117   118    1
    78   118   119    1
    79     2     3    1
    80     2     1    1
    81    68    67    2
    82     3     4    2
    83    65    71    1
    84    65    66    1
    85    93    94    1
    86    93    90    1
    87    94    95    1
    88    95    96    1
    89   119   120    1
    90    96    97    2
    91    67    66    1
    92    71    70    1
    93    66    69    1
    94    91    92    2
    95    91    90    1
    96    90    89    1
    97    97    99    1
    98    97    98    1
    99    75    74    2
   100    78    77    2
   101    72    73    1
   102    70    69    1
   103    83    82    2
   104    74    73    1
   105    77    79   am
   106    77    76    1
   107    86    85    1
   108    86    87    1
   109    84    85    1
   110    84    81    1
   111    73    76    1
   112    80    81    1
   113    82    81    1
   114    87    88    1
