@<TRIPOS>MOLECULE
tmp/2z0pD00.pdb
 120 114 0 0 0
SMALL
GASTEIGER

@<TRIPOS>ATOM
      1  N          0.5990   26.7500   48.7080 N.3    11  LYS11      -0.1245
      2  CA         1.3450   26.4530   49.9380 C.3    11  LYS11       0.1561
      3  C          2.4560   25.4320   49.7470 C.2    11  LYS11       0.2260
      4  O          2.3780   24.5590   48.8830 O.2    11  LYS11      -0.2867
      5  CB         0.4240   25.9810   51.0730 C.3    11  LYS11       0.0271
      6  CG        -0.4170   24.7650   50.7610 C.3    11  LYS11       0.0035
      7  CD        -1.1280   24.2480   52.0110 C.3    11  LYS11       0.0206
      8  CE        -0.1840   23.4370   52.8980 C.3    11  LYS11       0.1093
      9  NZ         0.3780   22.2470   52.2060 N.3    11  LYS11      -0.1314
     10  N          4.7750   22.3480   51.1110 N.3    13  SER13      -0.1202
     11  CA         4.6270   21.1830   51.9740 C.3    13  SER13       0.2020
     12  C          5.3180   21.4580   53.2900 C.2    13  SER13       0.2619
     13  O          6.4370   21.9770   53.3070 O.2    13  SER13      -0.2717
     14  CB         5.2700   19.9590   51.3340 C.3    13  SER13       0.2103
     15  OG         5.2370   18.8660   52.2300 O.3    13  SER13      -0.2182
     16  N          4.6540   21.1090   54.3870 N.am   14  GLN14      -0.1965
     17  CA         5.2130   21.3250   55.7150 C.3    14  GLN14       0.1733
     18  C          6.2330   20.2540   56.0560 C.2    14  GLN14       0.2616
     19  O          7.0940   20.4570   56.9100 O.2    14  GLN14      -0.2715
     20  CB         4.1090   21.3170   56.7710 C.3    14  GLN14       0.0408
     21  CG         3.0100   22.3570   56.5600 C.3    14  GLN14       0.0908
     22  CD         2.1550   22.5630   57.7980 C.2    14  GLN14       0.2608
     23  OE1        2.6040   23.1510   58.7730 O.2    14  GLN14      -0.2717
     24  NE2        0.9220   22.0670   57.7670 N.am   14  GLN14      -0.0878
     25  N          6.1390   19.1230   55.3680 N.am   15  GLN15      -0.1963
     26  CA         7.0190   17.9790   55.6040 C.3    15  GLN15       0.1733
     27  C          6.9700   17.5180   57.0590 C.2    15  GLN15       0.2616
     28  O          7.9840   17.5180   57.7500 O.2    15  GLN15      -0.2715
     29  CB         8.4690   18.2940   55.2060 C.3    15  GLN15       0.0408
     30  CG         8.6630   18.5130   53.7060 C.3    15  GLN15       0.0908
     31  CD        10.1180   18.4090   53.2650 C.2    15  GLN15       0.2608
     32  OE1       11.0110   19.0190   53.8600 O.2    15  GLN15      -0.2717
     33  NE2       10.3590   17.6410   52.2100 N.am   15  GLN15      -0.0878
     34  N          5.7830   17.1350   57.5260 N.am   16  LYS16      -0.1963
     35  CA         5.6470   16.6590   58.8950 C.3    16  LYS16       0.1728
     36  C          6.3050   15.2850   58.9680 C.2    16  LYS16       0.2616
     37  O          6.9820   14.9640   59.9400 O.2    16  LYS16      -0.2715
     38  CB         4.1760   16.5550   59.3010 C.3    16  LYS16       0.0311
     39  CG         3.4000   17.8660   59.3060 C.3    16  LYS16       0.0038
     40  CD         2.2140   17.7890   60.2760 C.3    16  LYS16       0.0206
     41  CE         1.1910   18.9150   60.0890 C.3    16  LYS16       0.1093
     42  NZ         0.3070   18.7020   58.8840 N.3    16  LYS16      -0.1314
     43  N          6.1040   14.4790   57.9320 N.am   17  LYS17      -0.1977
     44  CA         6.6920   13.1430   57.8610 C.3    17  LYS17       0.1596
     45  C          7.9630   13.2770   57.0300 C.2    17  LYS17       0.2287
     46  O          7.9590   13.9520   56.0050 O.2    17  LYS17      -0.2864
     47  CB         5.7330   12.1730   57.1690 C.3    17  LYS17       0.0298
     48  CG         4.2710   12.2570   57.6340 C.3    17  LYS17       0.0038
     49  CD         4.0490   11.7290   59.0560 C.3    17  LYS17       0.0206
     50  CE         2.5660   11.8380   59.4620 C.3    17  LYS17       0.1093
     51  NZ         2.2130   11.1390   60.7480 N.3    17  LYS17      -0.1314
     52  N          9.1530   11.3630   55.0940 N.3    19  THR19      -0.1203
     53  CA         8.9100   10.7640   53.7780 C.3    19  THR19       0.1994
     54  C          8.1490   11.6570   52.7900 C.2    19  THR19       0.2619
     55  O          7.6950   11.1730   51.7430 O.2    19  THR19      -0.2717
     56  CB         8.1060    9.4590   53.9010 C.3    19  THR19       0.1784
     57  OG1        6.8220    9.7390   54.4740 O.3    19  THR19      -0.2211
     58  CG2        8.8430    8.4630   54.7650 C.3    19  THR19       0.0376
     59  N          8.0100   12.9460   53.1070 N.am   20  SER20      -0.1938
     60  CA         7.2720   13.8550   52.2360 C.3    20  SER20       0.2040
     61  C          8.0980   14.7150   51.2940 C.2    20  SER20       0.2485
     62  O          9.2410   15.0900   51.5890 O.2    20  SER20      -0.2729
     63  CB         6.3570   14.7570   53.0590 C.3    20  SER20       0.2129
     64  OG         5.2270   14.0350   53.5090 O.3    20  SER20      -0.2179
     65  N          7.5120   15.0370   50.1310 N.am   21  PRO21      -0.2726
     66  CA         8.1080   15.8540   49.0730 C.3    21  PRO21       0.1402
     67  C          8.0650   17.3280   49.4610 C.2    21  PRO21       0.2269
     68  O          7.1950   17.7500   50.2210 O.2    21  PRO21      -0.2865
     69  CB         7.2070   15.5830   47.8720 C.3    21  PRO21       0.0296
     70  CG         6.4410   14.3470   48.2460 C.3    21  PRO21       0.0237
     71  CD         6.2110   14.5100   49.6990 C.3    21  PRO21       0.0939
     72  N          6.9940   19.9780   48.0050 N.3    23  ASN23      -0.1240
     73  CA         6.1940   20.4980   46.9110 C.3    23  ASN23       0.1653
     74  C          5.1180   21.5260   47.2750 C.2    23  ASN23       0.2266
     75  O          4.8110   21.7580   48.4470 O.2    23  ASN23      -0.2867
     76  CB         5.5600   19.3330   46.1610 C.3    23  ASN23       0.1155
     77  CG         4.6540   18.5070   47.0400 C.2    23  ASN23       0.2627
     78  OD1        4.4910   18.7900   48.2360 O.2    23  ASN23      -0.2716
     79  ND2        4.0550   17.4750   46.4560 N.am   23  ASN23      -0.0877
     80  N          1.1280   22.9330   46.6750 N.3    25  LYS25      -0.1245
     81  CA        -0.2390   22.6360   46.2830 C.3    25  LYS25       0.1561
     82  C         -1.0700   23.9070   46.3170 C.2    25  LYS25       0.2260
     83  O         -0.9060   24.7540   47.1960 O.2    25  LYS25      -0.2867
     84  CB        -0.8810   21.6320   47.2400 C.3    25  LYS25       0.0271
     85  CG        -0.2060   20.2890   47.3090 C.3    25  LYS25       0.0035
     86  CD        -0.3430   19.5300   46.0170 C.3    25  LYS25       0.0206
     87  CE         0.3540   18.1860   46.1000 C.3    25  LYS25       0.1093
     88  NZ         0.2810   17.5270   44.7800 N.3    25  LYS25      -0.1314
     89  N         -4.3090   25.6870   47.2140 N.3    27  ARG27      -0.1245
     90  CA        -5.3620   25.3900   48.1850 C.3    27  ARG27       0.1563
     91  C         -6.2940   26.5630   48.4730 C.2    27  ARG27       0.2260
     92  O         -5.9410   27.7420   48.2900 O.2    27  ARG27      -0.2867
     93  CB        -4.7450   24.9420   49.5240 C.3    27  ARG27       0.0307
     94  CG        -3.9190   23.6750   49.4520 C.3    27  ARG27       0.0489
     95  CD        -4.7600   22.4410   49.6850 C.3    27  ARG27       0.2205
     96  NE        -4.0000   21.2180   49.4420 N.pl3  27  ARG27      -0.0865
     97  CZ        -3.9070   20.6230   48.2580 C.cat  27  ARG27       0.5346
     98  NH1       -4.5330   21.1380   47.2060 N.pl3  27  ARG27       0.1354
     99  NH2       -3.1890   19.5140   48.1180 N.pl3  27  ARG27       0.1354
    100  N         -7.0090   24.5880   55.2320 N.3    38  TYR38      -0.1241
    101  CA        -6.9070   24.6270   53.7820 C.3    38  TYR38       0.1605
    102  C         -7.5230   23.4000   53.1320 C.2    38  TYR38       0.2264
    103  O         -7.4490   22.2940   53.6650 O.2    38  TYR38      -0.2867
    104  CB        -5.4460   24.8110   53.3500 C.3    38  TYR38       0.0534
    105  CG        -4.4410   24.0040   54.1210 C.ar   38  TYR38      -0.0201
    106  CD1       -4.0830   24.3530   55.4190 C.ar   38  TYR38      -0.0009
    107  CD2       -3.8220   22.8960   53.5420 C.ar   38  TYR38      -0.0009
    108  CE1       -3.1250   23.6180   56.1260 C.ar   38  TYR38       0.0417
    109  CE2       -2.8680   22.1550   54.2360 C.ar   38  TYR38       0.0417
    110  CZ        -2.5230   22.5210   55.5230 C.ar   38  TYR38       0.1957
    111  OH        -1.5710   21.7980   56.1940 O.3    38  TYR38      -0.2866
    112  N         -7.7240   19.5280   53.4430 N.3    52  LYS52      -0.1245
    113  CA        -6.3680   18.9830   53.3990 C.3    52  LYS52       0.1561
    114  C         -5.4900   19.3260   54.6040 C.2    52  LYS52       0.2260
    115  O         -4.3940   18.7880   54.7420 O.2    52  LYS52      -0.2867
    116  CB        -5.6580   19.4430   52.1250 C.3    52  LYS52       0.0271
    117  CG        -6.2190   18.8460   50.8490 C.3    52  LYS52       0.0035
    118  CD        -6.0970   17.3330   50.8280 C.3    52  LYS52       0.0206
    119  CE        -6.7480   16.7620   49.5730 C.3    52  LYS52       0.1093
    120  NZ        -7.0430   15.3020   49.7030 N.3    52  LYS52      -0.1314
@<TRIPOS>BOND
     1    88    87    1
     2    86    87    1
     3    86    85    1
     4    76    73    1
     5    76    77    1
     6    81    82    1
     7    81    80    1
     8    81    84    1
     9    82    83    2
    10    79    77   am
    11    73    74    1
    12    73    72    1
    13    77    78    2
    14    98    97    1
    15    89    90    1
    16    84    85    1
    17    74    75    2
    18    69    70    1
    19    69    66    1
    20    99    97    1
    21    90    91    1
    22    90    93    1
    23    70    71    1
    24    97    96    2
    25    92    91    2
    26     1     2    1
    27     4     3    2
    28    66    67    1
    29    66    65    1
    30    96    95    1
    31    94    93    1
    32    94    95    1
    33    67    68    2
    34   119   120    1
    35   119   118    1
    36    71    65    1
    37     3     2    1
    38     2     5    1
    39    65    61   am
    40     6     5    1
    41     6     7    1
    42   118   117    1
    43   117   116    1
    44    10    11    1
    45    61    62    2
    46    61    60    1
    47    14    11    1
    48    14    15    1
    49    55    54    2
    50    11    12    1
    51     7     8    1
    52   116   113    1
    53     9     8    1
    54    33    31   am
    55    60    63    1
    56    60    59    1
    57    54    59   am
    58    54    53    1
    59    63    64    1
    60   102   103    2
    61   102   101    1
    62    31    30    1
    63    31    32    2
    64    12    13    2
    65    12    16   am
    66   104   101    1
    67   104   105    1
    68   113   112    1
    69   113   114    1
    70   107   105   ar
    71   107   109   ar
    72    30    29    1
    73    53    56    1
    74    53    52    1
    75   101   100    1
    76    56    57    1
    77    56    58    1
    78   105   106   ar
    79   109   110   ar
    80    16    17    1
    81   114   115    2
    82    29    26    1
    83    25    26    1
    84    25    18   am
    85   106   108   ar
    86   110   108   ar
    87   110   111    1
    88    26    27    1
    89    17    18    1
    90    17    20    1
    91    46    45    2
    92    18    19    2
    93    21    20    1
    94    21    22    1
    95    45    44    1
    96    27    34   am
    97    27    28    2
    98    47    48    1
    99    47    44    1
   100    34    35    1
   101    48    49    1
   102    24    22   am
   103    22    23    2
   104    44    43    1
   105    43    36   am
   106    42    41    1
   107    35    36    1
   108    35    38    1
   109    36    37    2
   110    49    50    1
   111    38    39    1
   112    39    40    1
   113    50    51    1
   114    41    40    1
