@<TRIPOS>MOLECULE
tmp/2z0xA00.pdb
 154 147 0 0 0
SMALL
GASTEIGER

@<TRIPOS>ATOM
      1  N         13.2950   33.9730   28.3190 N.3    30  THR30      -0.1203
      2  CA        14.7510   34.1340   28.2490 C.3    30  THR30       0.1994
      3  C         15.1180   35.2330   29.2570 C.2    30  THR30       0.2618
      4  O         16.1890   35.8480   29.1450 O.2    30  THR30      -0.2717
      5  CB        15.2220   34.5500   26.8210 C.3    30  THR30       0.1784
      6  OG1       14.7050   35.8370   26.4650 O.3    30  THR30      -0.2211
      7  CG2       14.6670   33.5420   25.7850 C.3    30  THR30       0.0376
      8  N         14.2430   35.4400   30.2510 N.am   31  ARG31      -0.1965
      9  CA        14.4320   36.5610   31.2150 C.3    31  ARG31       0.1729
     10  C         15.7370   36.4830   31.9920 C.2    31  ARG31       0.2617
     11  O         16.4140   37.5060   32.1540 O.2    31  ARG31      -0.2715
     12  CB        13.2440   36.6370   32.1860 C.3    31  ARG31       0.0348
     13  CG        13.2580   37.9130   33.0570 C.3    31  ARG31       0.0492
     14  CD        12.0870   37.8600   34.0830 C.3    31  ARG31       0.2205
     15  NE        12.2890   36.8000   35.0790 N.pl3  31  ARG31      -0.0865
     16  CZ        13.0930   36.9400   36.1410 C.cat  31  ARG31       0.5346
     17  NH1       13.7460   38.0930   36.3270 N.pl3  31  ARG31       0.1354
     18  NH2       13.2670   35.9370   37.0060 N.pl3  31  ARG31       0.1354
     19  N         16.0590   35.2890   32.4780 N.am   32  THR32      -0.1937
     20  CA        17.3070   35.0840   33.2240 C.3    32  THR32       0.2028
     21  C         18.2640   34.2870   32.3260 C.2    32  THR32       0.2642
     22  O         17.8200   33.6330   31.3600 O.2    32  THR32      -0.2714
     23  CB        17.0860   34.2820   34.5270 C.3    32  THR32       0.1808
     24  OG1       16.6520   32.9580   34.2180 O.3    32  THR32      -0.2208
     25  CG2       15.9380   34.9300   35.3740 C.3    32  THR32       0.0379
     26  N         19.5630   34.3200   32.6460 N.am   33  ALA33      -0.1977
     27  CA        20.5460   33.5910   31.7940 C.3    33  ALA33       0.1597
     28  C         20.1900   32.1260   31.8160 C.2    33  ALA33       0.2287
     29  O         20.2690   31.4530   30.7780 O.2    33  ALA33      -0.2864
     30  CB        21.9860   33.7710   32.2790 C.3    33  ALA33       0.0319
     31  N         17.2770   31.5840   29.4780 N.3    36  ALA36      -0.1245
     32  CA        17.6900   31.7940   28.0820 C.3    36  ALA36       0.1562
     33  C         18.4700   30.5650   27.5600 C.2    36  ALA36       0.2260
     34  O         18.2440   30.0910   26.4430 O.2    36  ALA36      -0.2867
     35  CB        18.5690   33.0390   27.9720 C.3    36  ALA36       0.0290
     36  N         25.4840   32.5280   27.3620 N.3    47  ILE47      -0.1231
     37  CA        24.5230   33.6240   27.4110 C.3    47  ILE47       0.1692
     38  C         25.2780   34.9070   27.8000 C.2    47  ILE47       0.2592
     39  O         26.1170   34.9200   28.7360 O.2    47  ILE47      -0.2718
     40  CB        23.4400   33.3270   28.4470 C.3    47  ILE47       0.0266
     41  CG1       22.7000   32.0380   28.0830 C.3    47  ILE47       0.0019
     42  CG2       22.4460   34.5370   28.5630 C.3    47  ILE47       0.0020
     43  CD1       22.1160   31.9920   26.6370 C.3    47  ILE47       0.0001
     44  N         24.9830   35.9860   27.0910 N.am   48  VAL48      -0.1966
     45  CA        25.6390   37.2810   27.3470 C.3    48  VAL48       0.1727
     46  C         24.7130   38.1540   28.1670 C.2    48  VAL48       0.2616
     47  O         23.6020   38.4700   27.7200 O.2    48  VAL48      -0.2715
     48  CB        25.9200   38.0390   25.9940 C.3    48  VAL48       0.0290
     49  CG1       26.6560   39.3820   26.2340 C.3    48  VAL48       0.0023
     50  CG2       26.8080   37.1440   25.0530 C.3    48  VAL48       0.0023
     51  N         25.1510   38.5500   29.3640 N.am   49  LYS49      -0.1963
     52  CA        24.3370   39.4540   30.1990 C.3    49  LYS49       0.1728
     53  C         24.8900   40.8590   29.9020 C.2    49  LYS49       0.2617
     54  O         26.1030   41.0550   30.0100 O.2    49  LYS49      -0.2715
     55  CB        24.5410   39.1360   31.6690 C.3    49  LYS49       0.0311
     56  CG        24.0810   37.7300   32.0290 C.3    49  LYS49       0.0038
     57  CD        24.2800   37.3950   33.4860 C.3    49  LYS49       0.0206
     58  CE        25.7500   37.3290   33.8700 C.3    49  LYS49       0.1093
     59  NZ        25.9240   36.8150   35.2470 N.3    49  LYS49      -0.1314
     60  N         24.0350   41.8160   29.5170 N.am   50  SER50      -0.1936
     61  CA        24.5110   43.1870   29.2160 C.3    50  SER50       0.2055
     62  C         24.1570   43.9900   30.4550 C.2    50  SER50       0.2642
     63  O         22.9770   44.2530   30.7380 O.2    50  SER50      -0.2714
     64  CB        23.7950   43.7550   27.9840 C.3    50  SER50       0.2130
     65  OG        24.1700   43.0290   26.8180 O.3    50  SER50      -0.2179
     66  N         25.1810   44.3210   31.2330 N.am   51  LEU51      -0.1977
     67  CA        24.9970   45.0080   32.4910 C.3    51  LEU51       0.1596
     68  C         25.4620   46.4470   32.4370 C.2    51  LEU51       0.2287
     69  O         26.5660   46.7220   31.9580 O.2    51  LEU51      -0.2864
     70  CB        25.7930   44.2510   33.5930 C.3    51  LEU51       0.0297
     71  CG        25.4520   42.7520   33.6560 C.3    51  LEU51       0.0022
     72  CD1       26.3400   42.1050   34.7280 C.3    51  LEU51       0.0001
     73  CD2       23.9260   42.5450   33.9840 C.3    51  LEU51       0.0001
     74  N         26.1190   49.9560   40.2230 N.3    85  GLN85      -0.1231
     75  CA        25.1510   49.2460   39.3980 C.3    85  GLN85       0.1698
     76  C         23.9820   50.1870   39.0600 C.2    85  GLN85       0.2592
     77  O         23.4300   50.8610   39.9420 O.2    85  GLN85      -0.2718
     78  CB        24.6480   48.0410   40.2080 C.3    85  GLN85       0.0381
     79  CG        23.6140   47.1930   39.5110 C.3    85  GLN85       0.0905
     80  CD        22.9970   46.1510   40.4760 C.2    85  GLN85       0.2608
     81  OE1       22.3290   46.5000   41.4540 O.2    85  GLN85      -0.2717
     82  NE2       23.2250   44.8860   40.1960 N.am   85  GLN85      -0.0878
     83  N         23.5840   50.2440   37.7930 N.am   86  ALA86      -0.1966
     84  CA        22.4530   51.1100   37.4190 C.3    86  ALA86       0.1728
     85  C         21.1530   50.5570   38.0110 C.2    86  ALA86       0.2617
     86  O         20.9580   49.3470   38.0470 O.2    86  ALA86      -0.2715
     87  CB        22.3180   51.1820   35.8700 C.3    86  ALA86       0.0334
     88  N         20.2910   51.4450   38.5020 N.am   87  THR87      -0.1937
     89  CA        19.0000   50.9940   39.0380 C.3    87  THR87       0.2013
     90  C         18.1200   50.6540   37.8390 C.2    87  THR87       0.2484
     91  O         18.4300   51.0210   36.7150 O.2    87  THR87      -0.2729
     92  CB        18.2880   52.1070   39.7930 C.3    87  THR87       0.1807
     93  OG1       18.0790   53.1990   38.9090 O.3    87  THR87      -0.2208
     94  CG2       19.1410   52.5730   40.9930 C.3    87  THR87       0.0379
     95  N         17.0080   49.9520   38.0700 N.am   88  PRO88      -0.2726
     96  CA        16.1690   49.6470   36.9050 C.3    88  PRO88       0.1402
     97  C         15.7480   50.9070   36.1820 C.2    88  PRO88       0.2269
     98  O         15.6390   50.9160   34.9650 O.2    88  PRO88      -0.2865
     99  CB        14.9770   48.8910   37.5190 C.3    88  PRO88       0.0296
    100  CG        15.6290   48.1280   38.6370 C.3    88  PRO88       0.0237
    101  CD        16.5910   49.1760   39.2520 C.3    88  PRO88       0.0939
    102  N         15.5620   45.9990   32.5640 N.3    99  ILE99      -0.1231
    103  CA        16.2490   44.8190   33.1060 C.3    99  ILE99       0.1692
    104  C         15.5420   43.5280   32.6750 C.2    99  ILE99       0.2593
    105  O         14.3260   43.4330   32.7630 O.2    99  ILE99      -0.2718
    106  CB        16.2400   44.8910   34.6380 C.3    99  ILE99       0.0266
    107  CG1       17.0820   46.0890   35.1070 C.3    99  ILE99       0.0019
    108  CG2       16.7310   43.5360   35.2530 C.3    99  ILE99       0.0020
    109  CD1       18.5490   45.8740   34.8900 C.3    99  ILE99       0.0001
    110  N         16.3050   42.5440   32.1780 N.am  100  GLY100     -0.1942
    111  CA        15.6910   41.2800   31.7480 C.3   100  GLY100      0.2014
    112  C         15.7570   41.1760   30.2320 C.2   100  GLY100      0.2639
    113  O         15.6430   40.0860   29.6430 O.2   100  GLY100     -0.2714
    114  N         15.9250   42.3340   29.6010 N.am  101  GLY101     -0.1939
    115  CA        16.0150   42.3490   28.1580 C.3   101  GLY101      0.2014
    116  C         17.0730   43.3110   27.6570 C.2   101  GLY101      0.2638
    117  O         17.0470   43.5940   26.4720 O.2   101  GLY101     -0.2714
    118  N         18.0100   43.7860   28.4980 N.am  102  VAL102     -0.1977
    119  CA        18.9880   44.7950   28.0270 C.3   102  VAL102      0.1596
    120  C         19.8790   44.1660   26.9770 C.2   102  VAL102      0.2287
    121  O         20.5910   43.2190   27.2640 O.2   102  VAL102     -0.2864
    122  CB        19.8980   45.3310   29.1880 C.3   102  VAL102      0.0276
    123  CG1       20.9040   46.3680   28.6660 C.3   102  VAL102      0.0022
    124  CG2       19.0180   46.0210   30.2450 C.3   102  VAL102      0.0022
    125  N         22.8600   36.8000   22.9900 N.3   127  ALA127     -0.1231
    126  CA        22.7150   38.0130   23.8050 C.3   127  ALA127      0.1694
    127  C         21.2520   38.4070   23.7970 C.2   127  ALA127      0.2591
    128  O         20.4920   37.9470   22.9300 O.2   127  ALA127     -0.2718
    129  CB        23.5720   39.1510   23.2070 C.3   127  ALA127      0.0304
    130  N         20.8390   39.2370   24.7550 N.am  128  ALA128     -0.1980
    131  CA        19.4200   39.6680   24.8130 C.3   128  ALA128      0.1597
    132  C         19.1000   40.5120   23.5960 C.2   128  ALA128      0.2287
    133  O         19.9470   41.2870   23.1130 O.2   128  ALA128     -0.2864
    134  CB        19.1120   40.5050   26.1050 C.3   128  ALA128      0.0319
    135  N         14.0630   42.3240   25.1140 N.3   131  THR131     -0.1218
    136  CA        12.8890   41.9620   25.9230 C.3   131  THR131      0.1862
    137  C         13.2080   40.6570   26.6490 C.2   131  THR131      0.2287
    138  O         14.1820   39.9730   26.3060 O.2   131  THR131     -0.2866
    139  CB        11.6190   41.7210   24.9940 C.3   131  THR131      0.1770
    140  OG1       11.5640   40.3510   24.5390 O.3   131  THR131     -0.2211
    141  CG2       11.7080   42.6430   23.7120 C.3   131  THR131      0.0375
    142  N         13.4640   37.8060   24.1090 N.3   134  ALA134     -0.1231
    143  CA        14.2740   37.9580   22.8850 C.3   134  ALA134      0.1694
    144  C         15.7530   37.6970   23.0240 C.2   134  ALA134      0.2591
    145  O         16.3590   38.1080   24.0000 O.2   134  ALA134     -0.2718
    146  CB        14.0730   39.3540   22.3220 C.3   134  ALA134      0.0304
    147  N         16.3130   36.9970   22.0440 N.am  135  LEU135     -0.1980
    148  CA        17.7470   36.7310   22.0270 C.3   135  LEU135      0.1596
    149  C         18.2050   36.7620   20.5740 C.2   135  LEU135      0.2287
    150  O         17.3930   36.6670   19.6550 O.2   135  LEU135     -0.2864
    151  CB        18.0300   35.2990   22.4780 C.3   135  LEU135      0.0297
    152  CG        17.6940   34.8930   23.9280 C.3   135  LEU135      0.0022
    153  CD1       17.8130   33.3430   24.0800 C.3   135  LEU135      0.0001
    154  CD2       18.6980   35.5960   24.8920 C.3   135  LEU135      0.0001
@<TRIPOS>BOND
     1   150   149    2
     2   149   148    1
     3   148   147    1
     4   148   151    1
     5   147   144   am
     6   146   143    1
     7   151   152    1
     8   143   144    1
     9   143   142    1
    10   128   127    2
    11   125   126    1
    12   144   145    2
    13   133   132    2
    14   129   126    1
    15   132   131    1
    16   141   139    1
    17   127   126    1
    18   127   130   am
    19   152   153    1
    20   152   154    1
    21   140   139    1
    22   130   131    1
    23   131   134    1
    24   139   136    1
    25    50    48    1
    26   135   136    1
    27     7     5    1
    28   136   137    1
    29    48    49    1
    30    48    45    1
    31   138   137    2
    32    34    33    2
    33     6     5    1
    34   117   116    2
    35    43    41    1
    36    65    64    1
    37     5     2    1
    38   120   121    2
    39   120   119    1
    40    44    45    1
    41    44    38   am
    42    45    46    1
    43    36    37    1
    44    37    38    1
    45    37    40    1
    46    33    32    1
    47   116   115    1
    48   116   118   am
    49    47    46    2
    50    38    39    2
    51    35    32    1
    52    64    61    1
    53   119   118    1
    54   119   122    1
    55    32    31    1
    56    41    40    1
    57   115   114    1
    58    46    51   am
    59     2     1    1
    60     2     3    1
    61    40    42    1
    62   123   122    1
    63     4     3    2
    64   122   124    1
    65    61    60    1
    66    61    62    1
    67     3     8   am
    68    51    52    1
    69    60    53   am
    70   114   112   am
    71   113   112    2
    72    53    54    2
    73    53    52    1
    74    52    55    1
    75   112   111    1
    76     8     9    1
    77    62    63    2
    78    62    66   am
    79    29    28    2
    80     9    10    1
    81     9    12    1
    82    66    67    1
    83    22    21    2
    84    55    56    1
    85   111   110    1
    86    27    28    1
    87    27    30    1
    88    27    26    1
    89    69    68    2
    90    10    11    2
    91    10    19   am
    92    56    57    1
    93   110   104   am
    94    12    13    1
    95    21    26   am
    96    21    20    1
    97    68    67    1
    98    19    20    1
    99    67    70    1
   100   102   103    1
   101   104   105    2
   102   104   103    1
   103    13    14    1
   104   103   106    1
   105    20    23    1
   106    57    58    1
   107    70    71    1
   108    71    73    1
   109    71    72    1
   110    58    59    1
   111    14    15    1
   112    24    23    1
   113    23    25    1
   114   106   107    1
   115   106   108    1
   116   109   107    1
   117    98    97    2
   118    15    16    2
   119    87    84    1
   120    16    17    1
   121    16    18    1
   122    97    96    1
   123    91    90    2
   124    96    99    1
   125    96    95    1
   126    84    83    1
   127    84    85    1
   128    99   100    1
   129    83    76   am
   130    90    95   am
   131    90    89    1
   132    85    86    2
   133    85    88   am
   134    95   101    1
   135    88    89    1
   136   100   101    1
   137    93    92    1
   138    89    92    1
   139    76    75    1
   140    76    77    2
   141    75    78    1
   142    75    74    1
   143    79    78    1
   144    79    80    1
   145    92    94    1
   146    82    80   am
   147    80    81    2
