@<TRIPOS>MOLECULE
tmp/2z1aA00.pdb
 155 145 0 0 0
SMALL
GASTEIGER

@<TRIPOS>ATOM
      1  N         10.2570   33.0010   60.0810 N.3    88  ASN88      -0.1225
      2  CA        10.5100   33.5850   61.3890 C.3    88  ASN88       0.1785
      3  C         11.7650   34.4550   61.4090 C.2    88  ASN88       0.2597
      4  O         11.7860   35.4990   62.0600 O.2    88  ASN88      -0.2718
      5  CB        10.6060   32.4980   62.4700 C.3    88  ASN88       0.1169
      6  CG        11.5550   31.3790   62.1020 C.2    88  ASN88       0.2627
      7  OD1       11.3130   30.6390   61.1570 O.2    88  ASN88      -0.2716
      8  ND2       12.6440   31.2430   62.8590 N.am   88  ASN88      -0.0877
      9  N         12.8060   34.0570   60.6810 N.am   89  HIS89      -0.1975
     10  CA        14.0310   34.8480   60.7040 C.3    89  HIS89       0.1656
     11  C         13.9290   36.2040   60.0270 C.2    89  HIS89       0.2291
     12  O         14.7940   37.0570   60.2140 O.2    89  HIS89      -0.2864
     13  CB        15.1970   34.0300   60.1440 C.3    89  HIS89       0.0771
     14  CG        15.6790   32.9810   61.0950 C.ar   89  HIS89       0.0820
     15  ND1       16.5180   33.2670   62.1510 N.ar   89  HIS89      -0.2267
     16  CD2       15.3630   31.6700   61.2100 C.ar   89  HIS89       0.1154
     17  CE1       16.6960   32.1770   62.8770 C.ar   89  HIS89       0.1986
     18  NE2       16.0060   31.1940   62.3270 N.ar   89  HIS89      -0.2212
     19  N         14.0670   38.6820   62.7780 N.3    92  ASP92      -0.1239
     20  CA        15.2160   38.7120   63.6910 C.3    92  ASP92       0.1674
     21  C         15.7160   40.0930   64.1030 C.2    92  ASP92       0.2266
     22  O         16.2190   40.2630   65.2170 O.2    92  ASP92      -0.2867
     23  CB        16.3950   37.9340   63.0940 C.3    92  ASP92       0.1410
     24  CG        16.2230   36.4310   63.2000 C.2    92  ASP92       0.3668
     25  OD1       15.1480   35.9670   63.6360 O.co2  92  ASP92      -0.2456
     26  OD2       17.1770   35.7100   62.8410 O.co2  92  ASP92      -0.2456
     27  N         10.6000   32.5910   68.9710 N.3   152  ILE152     -0.1231
     28  CA        11.9020   32.3090   68.3780 C.3   152  ILE152      0.1692
     29  C         12.5900   33.4280   67.6000 C.2   152  ILE152      0.2593
     30  O         13.7130   33.2540   67.1370 O.2   152  ILE152     -0.2718
     31  CB        11.8240   31.0460   67.4920 C.3   152  ILE152      0.0266
     32  CG1       10.9450   31.3020   66.2660 C.3   152  ILE152      0.0019
     33  CG2       11.2600   29.8820   68.3040 C.3   152  ILE152      0.0020
     34  CD1       10.7660   30.0710   65.4000 C.3   152  ILE152      0.0001
     35  N         11.9320   34.5740   67.4640 N.am  153  SER153     -0.1938
     36  CA        12.5220   35.7030   66.7520 C.3   153  SER153      0.2055
     37  C         12.2740   36.9800   67.5420 C.2   153  SER153      0.2643
     38  O         11.9250   36.9190   68.7190 O.2   153  SER153     -0.2714
     39  CB        11.9150   35.8280   65.3510 C.3   153  SER153      0.2130
     40  OG        12.6130   36.7940   64.5830 O.3   153  SER153     -0.2179
     41  N         12.4530   38.1310   66.8970 N.am  154  ASN154     -0.1971
     42  CA        12.2330   39.4210   67.5490 C.3   154  ASN154      0.1688
     43  C         11.2020   40.2760   66.8170 C.2   154  ASN154      0.2292
     44  O         11.4670   41.4340   66.4950 O.2   154  ASN154     -0.2864
     45  CB        13.5440   40.2070   67.6400 C.3   154  ASN154      0.1181
     46  CG        14.5790   39.5150   68.4960 C.2   154  ASN154      0.2629
     47  OD1       14.3390   39.2310   69.6710 O.2   154  ASN154     -0.2716
     48  ND2       15.7400   39.2430   67.9160 N.am  154  ASN154     -0.0877
     49  N         10.9150   25.8760   56.9980 N.3   211  HIS211     -0.1241
     50  CA        11.0330   25.9690   58.4540 C.3   211  HIS211      0.1621
     51  C         11.6470   24.7550   59.1490 C.2   211  HIS211      0.2264
     52  O         12.4080   24.9050   60.1080 O.2   211  HIS211     -0.2867
     53  CB         9.6780   26.2960   59.1010 C.3   211  HIS211      0.0745
     54  CG         9.7830   26.6370   60.5580 C.ar  211  HIS211      0.0817
     55  ND1       10.7070   27.5410   61.0430 N.ar  211  HIS211     -0.2268
     56  CD2        9.0980   26.1850   61.6360 C.ar  211  HIS211      0.1154
     57  CE1       10.5870   27.6280   62.3570 C.ar  211  HIS211      0.1986
     58  NE2        9.6180   26.8150   62.7420 N.ar  211  HIS211     -0.2212
     59  N         19.9970   20.0560   68.3330 N.3   322  ARG322     -0.1245
     60  CA        18.6870   20.3550   68.9050 C.3   322  ARG322      0.1563
     61  C         18.0410   19.1270   69.5450 C.2   322  ARG322      0.2260
     62  O         16.8930   19.1970   69.9950 O.2   322  ARG322     -0.2867
     63  CB        17.7290   20.9000   67.8380 C.3   322  ARG322      0.0307
     64  CG        18.1590   22.2070   67.1840 C.3   322  ARG322      0.0489
     65  CD        17.0270   22.7420   66.3180 C.3   322  ARG322      0.2205
     66  NE        17.3810   23.9720   65.6160 N.pl3 322  ARG322     -0.0865
     67  CZ        16.4930   24.7560   65.0080 C.cat 322  ARG322      0.5346
     68  NH1       15.2060   24.4350   65.0250 N.pl3 322  ARG322      0.1354
     69  NH2       16.8890   25.8510   64.3740 N.pl3 322  ARG322      0.1354
     70  N         23.3490   26.8410   76.3160 N.3   350  GLN350     -0.1231
     71  CA        23.2370   27.4170   74.9790 C.3   350  GLN350      0.1698
     72  C         22.1840   26.6610   74.1730 C.2   350  GLN350      0.2592
     73  O         22.2760   25.4450   73.9960 O.2   350  GLN350     -0.2718
     74  CB        24.5920   27.3590   74.2640 C.3   350  GLN350      0.0381
     75  CG        24.5720   27.8290   72.8060 C.3   350  GLN350      0.0905
     76  CD        24.0720   29.2520   72.6490 C.2   350  GLN350      0.2608
     77  OE1       24.5320   30.1640   73.3360 O.2   350  GLN350     -0.2717
     78  NE2       23.1310   29.4530   71.7300 N.am  350  GLN350     -0.0878
     79  N         21.1740   27.3800   73.6980 N.am  351  ASN351     -0.1974
     80  CA        20.1200   26.7500   72.9160 C.3   351  ASN351      0.1688
     81  C         20.6740   26.3130   71.5650 C.2   351  ASN351      0.2292
     82  O         21.3960   27.0640   70.9060 O.2   351  ASN351     -0.2864
     83  CB        18.9320   27.7100   72.7460 C.3   351  ASN351      0.1181
     84  CG        19.3550   29.0990   72.3070 C.2   351  ASN351      0.2629
     85  OD1       20.1830   29.7430   72.9500 O.2   351  ASN351     -0.2716
     86  ND2       18.7790   29.5720   71.2060 N.am  351  ASN351     -0.0877
     87  N         19.2810   26.0040   68.7760 N.3   353  GLY353     -0.1210
     88  CA        18.7970   26.7940   67.6610 C.3   353  GLY353      0.1956
     89  C         19.7600   27.9260   67.3610 C.2   353  GLY353      0.2612
     90  O         19.7140   28.5180   66.2820 O.2   353  GLY353     -0.2717
     91  N         20.6330   28.2260   68.3220 N.am  354  GLY354     -0.1956
     92  CA        21.6170   29.2850   68.1490 C.3   354  GLY354      0.1869
     93  C         22.9250   28.8190   67.5260 C.2   354  GLY354      0.2309
     94  O         23.8120   29.6350   67.2530 O.2   354  GLY354     -0.2863
     95  N         24.1470   27.3110   64.3040 N.3   356  ARG356     -0.1245
     96  CA        23.6530   27.1340   62.9420 C.3   356  ARG356      0.1563
     97  C         24.4340   26.3550   61.8920 C.2   356  ARG356      0.2260
     98  O         23.9560   26.2080   60.7660 O.2   356  ARG356     -0.2867
     99  CB        23.3450   28.5160   62.3750 C.3   356  ARG356      0.0307
    100  CG        22.6910   29.4540   63.3660 C.3   356  ARG356      0.0489
    101  CD        21.2580   29.0690   63.6480 C.3   356  ARG356      0.2205
    102  NE        20.4510   29.0710   62.4250 N.pl3 356  ARG356     -0.0865
    103  CZ        19.1330   28.9200   62.4050 C.cat 356  ARG356      0.5346
    104  NH1       18.4700   28.7580   63.5440 N.pl3 356  ARG356      0.1354
    105  NH2       18.4770   28.9200   61.2490 N.pl3 356  ARG356      0.1354
    106  N         23.8080   35.4390   65.1330 N.3   375  PHE375     -0.1241
    107  CA        22.9490   36.4000   65.8220 C.3   375  PHE375      0.1605
    108  C         23.5480   37.6260   66.4940 C.2   375  PHE375      0.2264
    109  O         22.8720   38.6500   66.6230 O.2   375  PHE375     -0.2867
    110  CB        22.0840   35.6470   66.8320 C.3   375  PHE375      0.0534
    111  CG        21.2310   34.5820   66.2110 C.ar  375  PHE375     -0.0203
    112  CD1       20.1680   34.9220   65.3790 C.ar  375  PHE375     -0.0042
    113  CD2       21.5020   33.2360   66.4320 C.ar  375  PHE375     -0.0042
    114  CE1       19.3890   33.9380   64.7790 C.ar  375  PHE375     -0.0003
    115  CE2       20.7270   32.2410   65.8330 C.ar  375  PHE375     -0.0003
    116  CZ        19.6680   32.5940   65.0060 C.ar  375  PHE375     -0.0000
    117  N         24.4070   37.7330   69.6030 N.3   377  ASN377     -0.1240
    118  CA        23.8880   37.7980   70.9630 C.3   377  ASN377      0.1653
    119  C         25.0720   38.0410   71.8890 C.2   377  ASN377      0.2266
    120  O         26.2160   37.7910   71.5180 O.2   377  ASN377     -0.2867
    121  CB        23.2060   36.4850   71.3660 C.3   377  ASN377      0.1155
    122  CG        21.9450   36.2070   70.5680 C.2   377  ASN377      0.2627
    123  OD1       21.1940   37.1220   70.2260 O.2   377  ASN377     -0.2716
    124  ND2       21.6950   34.9350   70.2900 N.am  377  ASN377     -0.0877
    125  N         14.4840   24.7810   68.4320 N.3   405  GLY405     -0.1225
    126  CA        15.7800   25.3410   68.7780 C.3   405  GLY405      0.1811
    127  C         16.0620   25.6180   70.2460 C.2   405  GLY405      0.2280
    128  O         17.1920   25.9590   70.6010 O.2   405  GLY405     -0.2866
    129  N         23.0860   33.2710   76.7340 N.3   452  ASN452     -0.1240
    130  CA        23.1110   34.3770   75.7770 C.3   452  ASN452      0.1653
    131  C         21.9230   35.2800   76.0970 C.2   452  ASN452      0.2266
    132  O         20.9580   34.8400   76.7280 O.2   452  ASN452     -0.2867
    133  CB        23.0370   33.8600   74.3350 C.3   452  ASN452      0.1155
    134  CG        21.7520   33.1200   74.0450 C.2   452  ASN452      0.2627
    135  OD1       20.6770   33.7130   73.9940 O.2   452  ASN452     -0.2716
    136  ND2       21.8570   31.8100   73.8590 N.am  452  ASN452     -0.0877
    137  N         19.5150   36.4040   74.2820 N.3   454  PHE454     -0.1241
    138  CA        18.2250   36.0670   73.6980 C.3   454  PHE454      0.1605
    139  C         17.3750   35.2210   74.6420 C.2   454  PHE454      0.2264
    140  O         16.1980   35.5150   74.8510 O.2   454  PHE454     -0.2867
    141  CB        18.3870   35.3200   72.3730 C.3   454  PHE454      0.0534
    142  CG        17.0780   35.0240   71.6890 C.ar  454  PHE454     -0.0203
    143  CD1       16.3200   36.0540   71.1380 C.ar  454  PHE454     -0.0042
    144  CD2       16.5900   33.7240   71.6220 C.ar  454  PHE454     -0.0042
    145  CE1       15.0910   35.7920   70.5280 C.ar  454  PHE454     -0.0003
    146  CE2       15.3610   33.4520   71.0150 C.ar  454  PHE454     -0.0003
    147  CZ        14.6120   34.4890   70.4680 C.ar  454  PHE454     -0.0000
    148  N         12.7550   31.8890   73.1070 N.3   460  ASP460     -0.1239
    149  CA        12.7090   30.4270   73.0270 C.3   460  ASP460      0.1674
    150  C         11.9420   29.7850   74.1840 C.2   460  ASP460      0.2266
    151  O         12.2550   28.6680   74.5990 O.2   460  ASP460     -0.2867
    152  CB        14.1300   29.8490   72.9780 C.3   460  ASP460      0.1410
    153  CG        14.4620   29.2110   71.6400 C.2   460  ASP460      0.3668
    154  OD1       13.5510   29.0690   70.7960 O.co2 460  ASP460     -0.2456
    155  OD2       15.6390   28.8390   71.4320 O.co2 460  ASP460     -0.2456
@<TRIPOS>BOND
     1    49    50    1
     2    50    53    1
     3    50    51    1
     4    53    54    1
     5    51    52    2
     6    11    12    2
     7    11    10    1
     8     1     2    1
     9    13    10    1
    10    13    14    1
    11    54    55   ar
    12    54    56   ar
    13     9    10    1
    14     9     3   am
    15    98    97    2
    16    55    57   ar
    17    14    16   ar
    18    14    15   ar
    19     7     6    2
    20    16    18   ar
    21   105   103    1
    22     2     3    1
    23     2     5    1
    24     3     4    2
    25    56    58   ar
    26    97    96    1
    27     6     5    1
    28     6     8   am
    29    15    17   ar
    30    18    17   ar
    31    57    58   ar
    32    99    96    1
    33    99   100    1
    34   103   102    2
    35   103   104    1
    36   102   101    1
    37    19    20    1
    38    26    24   ar
    39    96    95    1
    40    23    24    1
    41    23    20    1
    42    24    25   ar
    43   100   101    1
    44    20    21    1
    45    21    22    2
    46    69    67    1
    47    40    39    1
    48   114   116   ar
    49   114   112   ar
    50   116   115   ar
    51    67    68    1
    52    67    66    2
    53   106   107    1
    54    39    36    1
    55   112   111   ar
    56    34    32    1
    57    66    65    1
    58   107   108    1
    59   107   110    1
    60   115   113   ar
    61   111   113   ar
    62   111   110    1
    63    32    31    1
    64    90    89    2
    65    65    64    1
    66   108   109    2
    67    44    43    2
    68    36    35    1
    69    36    37    1
    70    43    42    1
    71    41    37   am
    72    41    42    1
    73    30    29    2
    74    64    63    1
    75    94    93    2
    76    89    88    1
    77    89    91   am
    78    35    29   am
    79    31    33    1
    80    31    28    1
    81    93    92    1
    82    37    38    2
    83    42    45    1
    84    29    28    1
    85    45    46    1
    86    88    87    1
    87    63    60    1
    88    48    46   am
    89    92    91    1
    90    59    60    1
    91    28    27    1
    92   125   126    1
    93    46    47    2
    94   126   127    1
    95    60    61    1
    96    61    62    2
    97   117   118    1
    98   123   122    2
    99   127   128    2
   100   124   122   am
   101   147   145   ar
   102   147   146   ar
   103   145   143   ar
   104   122   121    1
   105   154   153   ar
   106    82    81    2
   107   118   121    1
   108   118   119    1
   109   146   144   ar
   110   143   142   ar
   111    86    84   am
   112   155   153   ar
   113   120   119    2
   114    81    80    1
   115   144   142   ar
   116   153   152    1
   117   142   141    1
   118    78    76   am
   119    84    83    1
   120    84    85    2
   121   141   138    1
   122    76    75    1
   123    76    77    2
   124    83    80    1
   125    75    74    1
   126    80    79    1
   127   152   149    1
   128   149   148    1
   129   149   150    1
   130   138   137    1
   131   138   139    1
   132    79    72   am
   133   136   134   am
   134   135   134    2
   135    73    72    2
   136   134   133    1
   137    72    71    1
   138   150   151    2
   139    74    71    1
   140   133   130    1
   141   139   140    2
   142    71    70    1
   143   130   131    1
   144   130   129    1
   145   131   132    2
