@<TRIPOS>MOLECULE
tmp/2z1kB01.pdb
 172 166 0 0 0
SMALL
GASTEIGER

@<TRIPOS>ATOM
      1  N         43.3410   55.6980   18.1000 N.3    40  LEU40      -0.1231
      2  CA        42.0400   55.6320   17.4610 C.3    40  LEU40       0.1693
      3  C         41.9800   54.7650   16.2000 C.2    40  LEU40       0.2591
      4  O         40.9730   54.1070   15.9430 O.2    40  LEU40      -0.2718
      5  CB        41.5700   57.0540   17.1410 C.3    40  LEU40       0.0284
      6  CG        40.0920   57.3830   17.3580 C.3    40  LEU40       0.0019
      7  CD1       39.7120   57.1770   18.8250 C.3    40  LEU40       0.0001
      8  CD2       39.8510   58.8280   16.9510 C.3    40  LEU40       0.0001
      9  N         43.0510   54.7460   15.4180 N.am   41  ARG41      -0.1980
     10  CA        43.0460   53.9680   14.1850 C.3    41  ARG41       0.1597
     11  C         44.0810   52.8540   14.1150 C.2    41  ARG41       0.2287
     12  O         44.0260   52.0230   13.2210 O.2    41  ARG41      -0.2864
     13  CB        43.2600   54.8920   12.9910 C.3    41  ARG41       0.0334
     14  CG        42.3720   56.1200   12.9650 C.3    41  ARG41       0.0492
     15  CD        40.9520   55.7910   12.5790 C.3    41  ARG41       0.2205
     16  NE        40.1500   57.0080   12.5150 N.pl3  41  ARG41      -0.0865
     17  CZ        38.8370   57.0390   12.3190 C.cat  41  ARG41       0.5346
     18  NH1       38.1540   55.9110   12.1550 N.pl3  41  ARG41       0.1354
     19  NH2       38.2020   58.2030   12.3170 N.pl3  41  ARG41       0.1354
     20  N         38.3350   48.4100   15.9520 N.3    78  HIS78      -0.1241
     21  CA        37.3470   47.8950   16.8870 C.3    78  HIS78       0.1621
     22  C         36.3300   47.0540   16.1380 C.2    78  HIS78       0.2264
     23  O         35.5420   46.3350   16.7360 O.2    78  HIS78      -0.2867
     24  CB        36.6540   49.0470   17.6130 C.3    78  HIS78       0.0745
     25  CG        36.1570   50.1270   16.7070 C.ar   78  HIS78       0.0817
     26  ND1       35.0930   49.9510   15.8480 N.ar   78  HIS78      -0.2268
     27  CD2       36.5630   51.4120   16.5460 C.ar   78  HIS78       0.1154
     28  CE1       34.8610   51.0800   15.2000 C.ar   78  HIS78       0.1986
     29  NE2       35.7380   51.9820   15.6050 N.ar   78  HIS78      -0.2212
     30  N         33.5590   47.8720   14.4120 N.3    80  TYR80      -0.1227
     31  CA        32.1390   48.2180   14.3760 C.3    80  TYR80       0.1736
     32  C         31.7220   48.8950   13.0620 C.2    80  TYR80       0.2595
     33  O         30.5600   49.2860   12.8960 O.2    80  TYR80      -0.2718
     34  CB        31.7750   49.0910   15.5740 C.3    80  TYR80       0.0548
     35  CG        31.6580   48.3020   16.8620 C.ar   80  TYR80      -0.0200
     36  CD1       30.4770   47.6290   17.1890 C.ar   80  TYR80      -0.0009
     37  CD2       32.7400   48.1950   17.7380 C.ar   80  TYR80      -0.0009
     38  CE1       30.3770   46.8660   18.3610 C.ar   80  TYR80       0.0417
     39  CE2       32.6540   47.4380   18.9030 C.ar   80  TYR80       0.0417
     40  CZ        31.4750   46.7750   19.2070 C.ar   80  TYR80       0.1957
     41  OH        31.4180   45.9920   20.3320 O.3    80  TYR80      -0.2866
     42  N         32.6750   49.0230   12.1340 N.am   81  HIS81      -0.1975
     43  CA        32.4230   49.6170   10.8140 C.3    81  HIS81       0.1656
     44  C         32.5410   48.4540    9.8470 C.2    81  HIS81       0.2291
     45  O         33.5650   48.2700    9.1960 O.2    81  HIS81      -0.2864
     46  CB        33.4760   50.6860   10.4650 C.3    81  HIS81       0.0771
     47  CG        33.5110   51.8330   11.4270 C.ar   81  HIS81       0.0820
     48  ND1       34.5280   52.7640   11.4410 N.ar   81  HIS81      -0.2267
     49  CD2       32.6760   52.1730   12.4380 C.ar   81  HIS81       0.1154
     50  CE1       34.3220   53.6220   12.4230 C.ar   81  HIS81       0.1986
     51  NE2       33.2050   53.2860   13.0420 N.ar   81  HIS81      -0.2212
     52  N         23.9090   49.6290   11.5000 N.3   120  HIS120     -0.1241
     53  CA        24.6780   50.3780   10.5110 C.3   120  HIS120      0.1621
     54  C         25.8850   49.6160    9.9960 C.2   120  HIS120      0.2264
     55  O         26.3310   48.6460   10.6080 O.2   120  HIS120     -0.2867
     56  CB        25.1760   51.6800   11.1510 C.3   120  HIS120      0.0745
     57  CG        25.8110   51.4740   12.4940 C.ar  120  HIS120      0.0817
     58  ND1       25.1320   51.6740   13.6790 N.ar  120  HIS120     -0.2268
     59  CD2       27.0350   51.0030   12.8370 C.ar  120  HIS120      0.1154
     60  CE1       25.9100   51.3320   14.6930 C.ar  120  HIS120      0.1986
     61  NE2       27.0700   50.9210   14.2090 N.ar  120  HIS120     -0.2212
     62  N         24.7720   56.6940   12.6590 N.3   162  TRP162     -0.1241
     63  CA        24.7610   56.4960   14.1060 C.3   162  TRP162      0.1605
     64  C         25.3900   57.6930   14.8080 C.2   162  TRP162      0.2264
     65  O         26.5810   57.9750   14.6370 O.2   162  TRP162     -0.2867
     66  CB        25.5280   55.2250   14.4860 C.3   162  TRP162      0.0550
     67  CG        25.3920   54.8930   15.9430 C.ar  162  TRP162      0.0003
     68  CD1       24.2770   54.4150   16.5750 C.ar  162  TRP162      0.0946
     69  CD2       26.3810   55.0790   16.9620 C.ar  162  TRP162      0.0152
     70  NE1       24.5090   54.2950   17.9250 N.ar  162  TRP162     -0.2442
     71  CE2       25.7930   54.6950   18.1900 C.ar  162  TRP162      0.0810
     72  CE3       27.7070   55.5320   16.9580 C.ar  162  TRP162      0.0012
     73  CZ2       26.4870   54.7510   19.4020 C.ar  162  TRP162      0.0191
     74  CZ3       28.3960   55.5880   18.1660 C.ar  162  TRP162      0.0001
     75  CH2       27.7820   55.1990   19.3700 C.ar  162  TRP162      0.0015
     76  N         27.5780   60.3310   12.9790 N.3   165  ASN165     -0.1240
     77  CA        28.9260   60.0500   12.5040 C.3   165  ASN165      0.1653
     78  C         28.8800   59.4650   11.0850 C.2   165  ASN165      0.2266
     79  O         28.3700   58.3630   10.8790 O.2   165  ASN165     -0.2867
     80  CB        29.6010   59.0680   13.4500 C.3   165  ASN165      0.1155
     81  CG        31.0530   58.8700   13.1310 C.2   165  ASN165      0.2627
     82  OD1       31.4360   58.8160   11.9700 O.2   165  ASN165     -0.2716
     83  ND2       31.8710   58.7440   14.1610 N.am  165  ASN165     -0.0877
     84  N         30.8770   57.9200    9.3990 N.3   167  GLU167     -0.1231
     85  CA        31.5540   56.6280    9.2870 C.3   167  GLU167      0.1699
     86  C         30.6210   55.4430    9.5140 C.2   167  GLU167      0.2592
     87  O         30.9870   54.3010    9.2290 O.2   167  GLU167     -0.2718
     88  CB        32.6980   56.5310   10.3060 C.3   167  GLU167      0.0402
     89  CG        33.7550   57.6110   10.1860 C.3   167  GLU167      0.1161
     90  CD        34.7770   57.5520   11.3090 C.2   167  GLU167      0.3649
     91  OE1       34.4090   57.7950   12.4790 O.co2 167  GLU167     -0.2457
     92  OE2       35.9490   57.2540   11.0240 O.co2 167  GLU167     -0.2457
     93  N         29.4280   55.7140   10.0330 N.am  168  LEU168     -0.1980
     94  CA        28.4670   54.6580   10.3240 C.3   168  LEU168      0.1596
     95  C         27.0810   54.8740    9.7050 C.2   168  LEU168      0.2287
     96  O         26.1120   55.1690   10.4100 O.2   168  LEU168     -0.2864
     97  CB        28.3290   54.4850   11.8460 C.3   168  LEU168      0.0297
     98  CG        29.6300   54.2900   12.6340 C.3   168  LEU168      0.0022
     99  CD1       30.1910   55.6610   13.0400 C.3   168  LEU168      0.0001
    100  CD2       29.3660   53.4570   13.8860 C.3   168  LEU168      0.0001
    101  N         25.4600   39.1100   20.6520 N.3   198  ARG198     -0.1245
    102  CA        25.3670   40.2460   21.5660 C.3   198  ARG198      0.1563
    103  C         24.9590   41.3320   20.5670 C.2   198  ARG198      0.2260
    104  O         25.7200   41.6570   19.6580 O.2   198  ARG198     -0.2867
    105  CB        26.7290   40.5620   22.1890 C.3   198  ARG198      0.0307
    106  CG        26.7640   41.8370   23.0420 C.3   198  ARG198      0.0489
    107  CD        27.0450   43.0950   22.2070 C.3   198  ARG198      0.2205
    108  NE        27.3280   44.2360   23.0720 N.pl3 198  ARG198     -0.0865
    109  CZ        27.6680   45.4520   22.6520 C.cat 198  ARG198      0.5346
    110  NH1       27.7800   45.7210   21.3590 N.pl3 198  ARG198      0.1354
    111  NH2       27.8880   46.4140   23.5390 N.pl3 198  ARG198      0.1354
    112  N         24.1910   45.0120   19.1590 N.3   200  ASP200     -0.1225
    113  CA        24.6050   46.4100   19.2870 C.3   200  ASP200      0.1805
    114  C         23.4200   47.3810   19.1880 C.2   200  ASP200      0.2597
    115  O         22.5770   47.2310   18.3080 O.2   200  ASP200     -0.2718
    116  CB        25.6260   46.7170   18.1850 C.3   200  ASP200      0.1424
    117  CG        26.4700   47.9340   18.4860 C.2   200  ASP200      0.3668
    118  OD1       27.0470   47.9860   19.5950 O.co2 200  ASP200     -0.2456
    119  OD2       26.5680   48.8270   17.6130 O.co2 200  ASP200     -0.2456
    120  N         23.3730   48.3710   20.0850 N.am  201  VAL201     -0.1980
    121  CA        22.3020   49.3810   20.1230 C.3   201  VAL201      0.1595
    122  C         20.9940   48.9510   19.4600 C.2   201  VAL201      0.2287
    123  O         20.5250   49.5920   18.5170 O.2   201  VAL201     -0.2864
    124  CB        22.7790   50.7180   19.4800 C.3   201  VAL201      0.0276
    125  CG1       23.9950   51.2580   20.2520 C.3   201  VAL201      0.0022
    126  CG2       23.1460   50.5090   18.0090 C.3   201  VAL201      0.0022
    127  N         22.3870   45.0400   24.0680 N.3   230  GLU230     -0.1245
    128  CA        23.1020   46.1240   24.7270 C.3   230  GLU230      0.1567
    129  C         22.0930   47.2260   25.0530 C.2   230  GLU230      0.2260
    130  O         21.7160   48.0090   24.1850 O.2   230  GLU230     -0.2867
    131  CB        24.2010   46.6960   23.8190 C.3   230  GLU230      0.0388
    132  CG        24.8520   47.9500   24.4050 C.3   230  GLU230      0.1160
    133  CD        25.6930   48.7300   23.4030 C.2   230  GLU230      0.3649
    134  OE1       25.5040   48.5520   22.1790 O.co2 230  GLU230     -0.2457
    135  OE2       26.5410   49.5370   23.8490 O.co2 230  GLU230     -0.2457
    136  N         34.5240   47.4670   26.8030 N.3   309  HIS309     -0.1226
    137  CA        35.2600   48.2610   25.8270 C.3   309  HIS309      0.1752
    138  C         34.6860   49.6810   25.7360 C.2   309  HIS309      0.2596
    139  O         35.2820   50.5550   25.1070 O.2   309  HIS309     -0.2718
    140  CB        35.1890   47.5840   24.4570 C.3   309  HIS309      0.0759
    141  CG        33.7950   47.4420   23.9380 C.ar  309  HIS309      0.0818
    142  ND1       32.8330   46.7050   24.5930 N.ar  309  HIS309     -0.2268
    143  CD2       33.1780   48.0030   22.8700 C.ar  309  HIS309      0.1154
    144  CE1       31.6810   46.8230   23.9560 C.ar  309  HIS309      0.1986
    145  NE2       31.8630   47.6050   22.9070 N.ar  309  HIS309     -0.2212
    146  N         33.5290   49.9010   26.3610 N.am  310  ASP310     -0.1974
    147  CA        32.8770   51.2150   26.3540 C.3   310  ASP310      0.1709
    148  C         33.0010   51.9610   27.6800 C.2   310  ASP310      0.2293
    149  O         32.4740   53.0610   27.8220 O.2   310  ASP310     -0.2864
    150  CB        31.3850   51.0920   26.0240 C.3   310  ASP310      0.1436
    151  CG        31.1280   50.7450   24.5690 C.2   310  ASP310      0.3671
    152  OD1       31.8750   51.2270   23.6920 O.co2 310  ASP310     -0.2456
    153  OD2       30.1630   50.0000   24.3050 O.co2 310  ASP310     -0.2456
    154  N         37.9280   54.8380   26.2320 N.3   352  ASP352     -0.1239
    155  CA        38.2750   54.5040   24.8510 C.3   352  ASP352      0.1674
    156  C         39.1350   55.6390   24.2880 C.2   352  ASP352      0.2266
    157  O         38.7180   56.7920   24.3010 O.2   352  ASP352     -0.2867
    158  CB        36.9780   54.3830   24.0430 C.3   352  ASP352      0.1410
    159  CG        37.2100   53.9930   22.5970 C.2   352  ASP352      0.3668
    160  OD1       38.3730   54.0080   22.1360 O.co2 352  ASP352     -0.2456
    161  OD2       36.2100   53.6750   21.9180 O.co2 352  ASP352     -0.2456
    162  N         41.7150   49.7920   25.7420 N.3   356  ARG356     -0.1245
    163  CA        41.9160   48.7490   24.7320 C.3   356  ARG356      0.1563
    164  C         43.3780   48.4380   24.4400 C.2   356  ARG356      0.2260
    165  O         43.7620   48.2500   23.2870 O.2   356  ARG356     -0.2867
    166  CB        41.2040   49.1570   23.4360 C.3   356  ARG356      0.0307
    167  CG        39.7180   49.3940   23.6500 C.3   356  ARG356      0.0489
    168  CD        39.0290   50.0770   22.4810 C.3   356  ARG356      0.2205
    169  NE        37.6360   50.3830   22.8150 N.pl3 356  ARG356     -0.0865
    170  CZ        36.7150   50.7690   21.9360 C.cat 356  ARG356      0.5346
    171  NH1       37.0270   50.9070   20.6490 N.pl3 356  ARG356      0.1354
    172  NH2       35.4720   51.0010   22.3450 N.pl3 356  ARG356      0.1354
@<TRIPOS>BOND
     1    45    44    2
     2    87    86    2
     3    85    84    1
     4    85    86    1
     5    85    88    1
     6    86    93   am
     7    95    94    1
     8    95    96    2
     9    44    43    1
    10    54    53    1
    11    54    55    2
    12    93    94    1
    13    89    88    1
    14    89    90    1
    15    94    97    1
    16    46    43    1
    17    46    47    1
    18    53    56    1
    19    53    52    1
    20    43    42    1
    21    79    78    2
    22    92    90   ar
    23    78    77    1
    24    56    57    1
    25    90    91   ar
    26    47    48   ar
    27    47    49   ar
    28    48    50   ar
    29    97    98    1
    30    82    81    2
    31    42    32   am
    32    18    17    1
    33    19    17    1
    34    17    16    2
    35    50    51   ar
    36    49    51   ar
    37    57    59   ar
    38    57    58   ar
    39    77    76    1
    40    77    80    1
    41    16    15    1
    42    15    14    1
    43    98    99    1
    44    98   100    1
    45    62    63    1
    46    59    61   ar
    47    33    32    2
    48    14    13    1
    49    13    10    1
    50    32    31    1
    51    81    80    1
    52    81    83   am
    53    12    11    2
    54    58    60   ar
    55    63    66    1
    56    63    64    1
    57    11    10    1
    58    10     9    1
    59    61    60   ar
    60    31    30    1
    61    31    34    1
    62    66    67    1
    63    65    64    2
    64    28    29   ar
    65    28    26   ar
    66     9     3   am
    67    34    35    1
    68    29    27   ar
    69    26    25   ar
    70    67    68   ar
    71    67    69   ar
    72     4     3    2
    73    20    21    1
    74    22    23    2
    75    22    21    1
    76     3     2    1
    77    27    25   ar
    78    68    70   ar
    79    25    24    1
    80    35    36   ar
    81    35    37   ar
    82    21    24    1
    83     8     6    1
    84    72    69   ar
    85    72    74   ar
    86    69    71   ar
    87     5     6    1
    88     5     2    1
    89    36    38   ar
    90     6     7    1
    91     2     1    1
    92   119   117   ar
    93    37    39   ar
    94    70    71   ar
    95   126   124    1
    96    74    75   ar
    97   116   117    1
    98   116   113    1
    99    71    73   ar
   100   115   114    2
   101    38    40   ar
   102   117   118   ar
   103   123   122    2
   104    39    40   ar
   105   112   113    1
   106   114   113    1
   107   114   120   am
   108    40    41    1
   109    75    73   ar
   110   122   121    1
   111   124   121    1
   112   124   125    1
   113   104   103    2
   114   120   121    1
   115   103   102    1
   116   171   170    1
   117   101   102    1
   118   110   109    1
   119   102   105    1
   120   161   159   ar
   121   170   172    1
   122   170   169    2
   123   160   159   ar
   124   134   133   ar
   125   105   106    1
   126   107   106    1
   127   107   108    1
   128   168   169    1
   129   168   167    1
   130   159   158    1
   131   109   108    2
   132   109   111    1
   133   143   145   ar
   134   143   141   ar
   135   145   144   ar
   136   165   164    2
   137   133   135   ar
   138   133   132    1
   139   166   167    1
   140   166   163    1
   141   152   151   ar
   142   131   132    1
   143   131   128    1
   144   141   140    1
   145   141   142   ar
   146   144   142   ar
   147   158   155    1
   148   127   128    1
   149   130   129    2
   150   156   157    2
   151   156   155    1
   152   153   151   ar
   153   164   163    1
   154   140   137    1
   155   151   150    1
   156   128   129    1
   157   163   162    1
   158   155   154    1
   159   139   138    2
   160   138   137    1
   161   138   146   am
   162   137   136    1
   163   150   147    1
   164   147   146    1
   165   147   148    1
   166   148   149    2
