@<TRIPOS>MOLECULE
tmp/2z1kB00.pdb
 156 152 0 0 0
SMALL
GASTEIGER

@<TRIPOS>ATOM
      1  N         24.7720   56.6940   12.6590 N.3   162  TRP162     -0.1227
      2  CA        24.7610   56.4960   14.1060 C.3   162  TRP162      0.1737
      3  C         25.3900   57.6930   14.8080 C.2   162  TRP162      0.2595
      4  O         26.5810   57.9750   14.6370 O.2   162  TRP162     -0.2718
      5  CB        25.5280   55.2250   14.4860 C.3   162  TRP162      0.0564
      6  CG        25.3920   54.8930   15.9430 C.ar  162  TRP162      0.0003
      7  CD1       24.2770   54.4150   16.5750 C.ar  162  TRP162      0.0946
      8  CD2       26.3810   55.0790   16.9620 C.ar  162  TRP162      0.0152
      9  NE1       24.5090   54.2950   17.9250 N.ar  162  TRP162     -0.2442
     10  CE2       25.7930   54.6950   18.1900 C.ar  162  TRP162      0.0810
     11  CE3       27.7070   55.5320   16.9580 C.ar  162  TRP162      0.0012
     12  CZ2       26.4870   54.7510   19.4020 C.ar  162  TRP162      0.0191
     13  CZ3       28.3960   55.5880   18.1660 C.ar  162  TRP162      0.0001
     14  CH2       27.7820   55.1990   19.3700 C.ar  162  TRP162      0.0015
     15  N         24.5800   58.3970   15.5900 N.am  163  TRP163     -0.1976
     16  CA        25.0380   59.5750   16.3170 C.3   163  TRP163      0.1640
     17  C         25.5950   60.6380   15.3710 C.2   163  TRP163      0.2290
     18  O         26.4660   61.4210   15.7490 O.2   163  TRP163     -0.2864
     19  CB        26.0960   59.1770   17.3490 C.3   163  TRP163      0.0576
     20  CG        25.5410   58.4670   18.5550 C.ar  163  TRP163      0.0006
     21  CD1       24.4050   57.7070   18.6150 C.ar  163  TRP163      0.0946
     22  CD2       26.1320   58.4040   19.8620 C.ar  163  TRP163      0.0152
     23  NE1       24.2550   57.1750   19.8750 N.ar  163  TRP163     -0.2442
     24  CE2       25.3010   57.5840   20.6580 C.ar  163  TRP163      0.0810
     25  CE3       27.2860   58.9570   20.4350 C.ar  163  TRP163      0.0012
     26  CZ2       25.5860   57.3030   22.0000 C.ar  163  TRP163      0.0191
     27  CZ3       27.5710   58.6770   21.7710 C.ar  163  TRP163      0.0001
     28  CH2       26.7220   57.8560   22.5360 C.ar  163  TRP163      0.0015
     29  N         27.5780   60.3310   12.9790 N.3   165  ASN165     -0.1240
     30  CA        28.9260   60.0500   12.5040 C.3   165  ASN165      0.1653
     31  C         28.8800   59.4650   11.0850 C.2   165  ASN165      0.2266
     32  O         28.3700   58.3630   10.8790 O.2   165  ASN165     -0.2867
     33  CB        29.6010   59.0680   13.4500 C.3   165  ASN165      0.1155
     34  CG        31.0530   58.8700   13.1310 C.2   165  ASN165      0.2627
     35  OD1       31.4360   58.8160   11.9700 O.2   165  ASN165     -0.2716
     36  ND2       31.8710   58.7440   14.1610 N.am  165  ASN165     -0.0877
     37  N         24.1910   45.0120   19.1590 N.3   200  ASP200     -0.1225
     38  CA        24.6050   46.4100   19.2870 C.3   200  ASP200      0.1805
     39  C         23.4200   47.3810   19.1880 C.2   200  ASP200      0.2597
     40  O         22.5770   47.2310   18.3080 O.2   200  ASP200     -0.2718
     41  CB        25.6260   46.7170   18.1850 C.3   200  ASP200      0.1424
     42  CG        26.4700   47.9340   18.4860 C.2   200  ASP200      0.3668
     43  OD1       27.0470   47.9860   19.5950 O.co2 200  ASP200     -0.2456
     44  OD2       26.5680   48.8270   17.6130 O.co2 200  ASP200     -0.2456
     45  N         23.3730   48.3710   20.0850 N.am  201  VAL201     -0.1980
     46  CA        22.3020   49.3810   20.1230 C.3   201  VAL201      0.1595
     47  C         20.9940   48.9510   19.4600 C.2   201  VAL201      0.2287
     48  O         20.5250   49.5920   18.5170 O.2   201  VAL201     -0.2864
     49  CB        22.7790   50.7180   19.4800 C.3   201  VAL201      0.0276
     50  CG1       23.9950   51.2580   20.2520 C.3   201  VAL201      0.0022
     51  CG2       23.1460   50.5090   18.0090 C.3   201  VAL201      0.0022
     52  N         18.0400   49.3440   20.2470 N.3   203  ASN203     -0.1225
     53  CA        17.0210   50.3880   20.2670 C.3   203  ASN203      0.1785
     54  C         17.0500   51.2820   19.0200 C.2   203  ASN203      0.2597
     55  O         16.0690   51.9750   18.7360 O.2   203  ASN203     -0.2718
     56  CB        17.1710   51.2620   21.5280 C.3   203  ASN203      0.1169
     57  CG        18.5420   51.9250   21.6260 C.2   203  ASN203      0.2627
     58  OD1       19.5640   51.2500   21.7440 O.2   203  ASN203     -0.2716
     59  ND2       18.5650   53.2530   21.5720 N.am  203  ASN203     -0.0877
     60  N         18.1590   51.2690   18.2770 N.am  204  GLU204     -0.1979
     61  CA        18.2750   52.0990   17.0720 C.3   204  GLU204      0.1602
     62  C         17.3970   51.5980   15.9150 C.2   204  GLU204      0.2287
     63  O         17.1350   52.3250   14.9570 O.2   204  GLU204     -0.2864
     64  CB        19.7380   52.1890   16.6220 C.3   204  GLU204      0.0415
     65  CG        20.6340   52.9860   17.5650 C.3   204  GLU204      0.1163
     66  CD        20.2560   54.4620   17.6480 C.2   204  GLU204      0.3649
     67  OE1       20.0540   55.0880   16.5860 O.co2 204  GLU204     -0.2457
     68  OE2       20.1730   55.0050   18.7720 O.co2 204  GLU204     -0.2457
     69  N         22.3870   45.0400   24.0680 N.3   230  GLU230     -0.1245
     70  CA        23.1020   46.1240   24.7270 C.3   230  GLU230      0.1567
     71  C         22.0930   47.2260   25.0530 C.2   230  GLU230      0.2260
     72  O         21.7160   48.0090   24.1850 O.2   230  GLU230     -0.2867
     73  CB        24.2010   46.6960   23.8190 C.3   230  GLU230      0.0388
     74  CG        24.8520   47.9500   24.4050 C.3   230  GLU230      0.1160
     75  CD        25.6930   48.7300   23.4030 C.2   230  GLU230      0.3649
     76  OE1       25.5040   48.5520   22.1790 O.co2 230  GLU230     -0.2457
     77  OE2       26.5410   49.5370   23.8490 O.co2 230  GLU230     -0.2457
     78  N         21.6810   50.0010   28.1720 N.3   232  TRP232     -0.1227
     79  CA        22.3680   50.5340   29.3460 C.3   232  TRP232      0.1737
     80  C         21.5270   50.8540   30.5840 C.2   232  TRP232      0.2595
     81  O         22.0670   51.2310   31.6220 O.2   232  TRP232     -0.2718
     82  CB        23.1760   51.7600   28.9350 C.3   232  TRP232      0.0564
     83  CG        24.3100   51.4070   28.0390 C.ar  232  TRP232      0.0003
     84  CD1       24.2330   50.8700   26.7880 C.ar  232  TRP232      0.0946
     85  CD2       25.7030   51.5630   28.3270 C.ar  232  TRP232      0.0152
     86  NE1       25.4970   50.6850   26.2720 N.ar  232  TRP232     -0.2442
     87  CE2       26.4180   51.1030   27.1970 C.ar  232  TRP232      0.0810
     88  CE3       26.4190   52.0470   29.4320 C.ar  232  TRP232      0.0012
     89  CZ2       27.8190   51.1160   27.1380 C.ar  232  TRP232      0.0191
     90  CZ3       27.8110   52.0600   29.3730 C.ar  232  TRP232      0.0001
     91  CH2       28.4960   51.5970   28.2290 C.ar  232  TRP232      0.0015
     92  N         20.2150   50.6950   30.4700 N.am  233  GLU233     -0.1979
     93  CA        19.3010   50.9560   31.5720 C.3   233  GLU233      0.1602
     94  C         18.3290   49.7780   31.7140 C.2   233  GLU233      0.2287
     95  O         18.4990   48.7570   31.0440 O.2   233  GLU233     -0.2864
     96  CB        18.5360   52.2620   31.3200 C.3   233  GLU233      0.0415
     97  CG        19.3370   53.5550   31.5870 C.3   233  GLU233      0.1163
     98  CD        20.2260   53.9940   30.4170 C.2   233  GLU233      0.3649
     99  OE1       19.7650   53.9230   29.2490 O.co2 233  GLU233     -0.2457
    100  OE2       21.3810   54.4340   30.6660 O.co2 233  GLU233     -0.2457
    101  N         32.4770   60.1640   31.8890 N.3   270  GLN270     -0.1231
    102  CA        32.9580   60.4270   30.5360 C.3   270  GLN270      0.1698
    103  C         32.4740   59.3390   29.5870 C.2   270  GLN270      0.2593
    104  O         32.7460   59.3850   28.3880 O.2   270  GLN270     -0.2718
    105  CB        34.4810   60.4560   30.5050 C.3   270  GLN270      0.0381
    106  CG        35.0930   61.7290   31.0380 C.3   270  GLN270      0.0905
    107  CD        36.6050   61.6690   31.0410 C.2   270  GLN270      0.2608
    108  OE1       37.2720   62.6940   31.0490 O.2   270  GLN270     -0.2717
    109  NE2       37.1520   60.4620   31.0410 N.am  270  GLN270     -0.0878
    110  N         31.7710   58.3540   30.1360 N.am  271  THR271     -0.1939
    111  CA        31.2520   57.2350   29.3510 C.3   271  THR271      0.2028
    112  C         29.8080   56.9220   29.7480 C.2   271  THR271      0.2642
    113  O         29.2370   57.5770   30.6230 O.2   271  THR271     -0.2714
    114  CB        32.1100   55.9580   29.5730 C.3   271  THR271      0.1808
    115  OG1       31.8820   55.4380   30.8890 O.3   271  THR271     -0.2208
    116  CG2       33.5950   56.2820   29.4290 C.3   271  THR271      0.0379
    117  N         29.2380   55.9010   29.1130 N.am  272  GLY272     -0.1954
    118  CA        27.8730   55.5010   29.3920 C.3   272  GLY272      0.1869
    119  C         27.5610   55.1510   30.8370 C.2   272  GLY272      0.2309
    120  O         26.3950   55.0800   31.2190 O.2   272  GLY272     -0.2863
    121  N         33.5290   49.9010   26.3610 N.3   310  ASP310     -0.1239
    122  CA        32.8770   51.2150   26.3540 C.3   310  ASP310      0.1674
    123  C         33.0010   51.9610   27.6800 C.2   310  ASP310      0.2266
    124  O         32.4740   53.0610   27.8220 O.2   310  ASP310     -0.2867
    125  CB        31.3850   51.0920   26.0240 C.3   310  ASP310      0.1410
    126  CG        31.1280   50.7450   24.5690 C.2   310  ASP310      0.3668
    127  OD1       31.8750   51.2270   23.6920 O.co2 310  ASP310     -0.2456
    128  OD2       30.1630   50.0000   24.3050 O.co2 310  ASP310     -0.2456
    129  N         39.1210   56.0140   29.5170 N.3   351  LYS351     -0.1231
    130  CA        38.1660   55.6930   28.4670 C.3   351  LYS351      0.1693
    131  C         38.7690   55.3980   27.0960 C.2   351  LYS351      0.2592
    132  O         39.9440   55.6660   26.8360 O.2   351  LYS351     -0.2718
    133  CB        37.1510   56.8290   28.3160 C.3   351  LYS351      0.0285
    134  CG        37.7490   58.1450   27.8350 C.3   351  LYS351      0.0035
    135  CD        36.6610   59.0530   27.2760 C.3   351  LYS351      0.0206
    136  CE        37.2390   60.2890   26.6030 C.3   351  LYS351      0.1093
    137  NZ        36.1570   61.1300   26.0050 N.3   351  LYS351     -0.1314
    138  N         37.9280   54.8380   26.2320 N.am  352  ASP352     -0.1974
    139  CA        38.2750   54.5040   24.8510 C.3   352  ASP352      0.1709
    140  C         39.1350   55.6390   24.2880 C.2   352  ASP352      0.2293
    141  O         38.7180   56.7920   24.3010 O.2   352  ASP352     -0.2864
    142  CB        36.9780   54.3830   24.0430 C.3   352  ASP352      0.1436
    143  CG        37.2100   53.9930   22.5970 C.2   352  ASP352      0.3671
    144  OD1       38.3730   54.0080   22.1360 O.co2 352  ASP352     -0.2456
    145  OD2       36.2100   53.6750   21.9180 O.co2 352  ASP352     -0.2456
    146  N         41.7150   49.7920   25.7420 N.3   356  ARG356     -0.1245
    147  CA        41.9160   48.7490   24.7320 C.3   356  ARG356      0.1563
    148  C         43.3780   48.4380   24.4400 C.2   356  ARG356      0.2260
    149  O         43.7620   48.2500   23.2870 O.2   356  ARG356     -0.2867
    150  CB        41.2040   49.1570   23.4360 C.3   356  ARG356      0.0307
    151  CG        39.7180   49.3940   23.6500 C.3   356  ARG356      0.0489
    152  CD        39.0290   50.0770   22.4810 C.3   356  ARG356      0.2205
    153  NE        37.6360   50.3830   22.8150 N.pl3 356  ARG356     -0.0865
    154  CZ        36.7150   50.7690   21.9360 C.cat 356  ARG356      0.5346
    155  NH1       37.0270   50.9070   20.6490 N.pl3 356  ARG356      0.1354
    156  NH2       35.4720   51.0010   22.3450 N.pl3 356  ARG356      0.1354
@<TRIPOS>BOND
     1    32    31    2
     2    31    30    1
     3    35    34    2
     4    30    29    1
     5    30    33    1
     6     1     2    1
     7    34    33    1
     8    34    36   am
     9     2     5    1
    10     2     3    1
    11     5     6    1
    12     4     3    2
    13     3    15   am
    14    63    62    2
    15    17    18    2
    16    17    16    1
    17    15    16    1
    18    62    61    1
    19     6     7   ar
    20     6     8   ar
    21    16    19    1
    22     7     9   ar
    23    67    66   ar
    24    64    61    1
    25    64    65    1
    26    11     8   ar
    27    11    13   ar
    28     8    10   ar
    29    61    60    1
    30    19    20    1
    31    65    66    1
    32    44    42   ar
    33    66    68   ar
    34     9    10   ar
    35    51    49    1
    36    13    14   ar
    37    41    42    1
    38    41    38    1
    39    10    12   ar
    40    60    54   am
    41    40    39    2
    42    42    43   ar
    43    48    47    2
    44    20    21   ar
    45    20    22   ar
    46    21    23   ar
    47    55    54    2
    48    54    53    1
    49    37    38    1
    50    39    38    1
    51    39    45   am
    52    14    12   ar
    53    47    46    1
    54    49    46    1
    55    49    50    1
    56    22    25   ar
    57    22    24   ar
    58    23    24   ar
    59    45    46    1
    60    52    53    1
    61    53    56    1
    62    25    27   ar
    63   155   154    1
    64    24    26   ar
    65    56    57    1
    66    59    57   am
    67    57    58    2
    68    27    28   ar
    69   145   143   ar
    70   154   156    1
    71   154   153    2
    72    26    28   ar
    73   144   143   ar
    74    76    75   ar
    75   152   153    1
    76   152   151    1
    77   143   142    1
    78   149   148    2
    79    75    77   ar
    80    75    74    1
    81   150   151    1
    82   150   147    1
    83   127   126   ar
    84    73    74    1
    85    73    70    1
    86   142   139    1
    87    69    70    1
    88    72    71    2
    89   140   141    2
    90   140   139    1
    91   128   126   ar
    92   148   147    1
    93   126   125    1
    94    70    71    1
    95   147   146    1
    96   139   138    1
    97   137   136    1
    98   125   122    1
    99   138   131   am
   100    86    84   ar
   101    86    87   ar
   102   122   121    1
   103   122   123    1
   104   136   135    1
   105    84    83   ar
   106   132   131    2
   107   131   130    1
   108    89    87   ar
   109    89    91   ar
   110    87    85   ar
   111   135   134    1
   112   123   124    2
   113   134   133    1
   114    83    85   ar
   115    83    82    1
   116    78    79    1
   117    91    90   ar
   118   133   130    1
   119    85    88   ar
   120   104   103    2
   121   130   129    1
   122    82    79    1
   123   117   118    1
   124   117   112   am
   125    99    98   ar
   126    79    80    1
   127   111   114    1
   128   111   112    1
   129   111   110    1
   130    90    88   ar
   131   118   119    1
   132   116   114    1
   133   114   115    1
   134   103   110   am
   135   103   102    1
   136   112   113    2
   137    98   100   ar
   138    98    97    1
   139    92    80   am
   140    92    93    1
   141   105   102    1
   142   105   106    1
   143   102   101    1
   144    80    81    2
   145   119   120    2
   146   106   107    1
   147   107   109   am
   148   107   108    2
   149    95    94    2
   150    96    93    1
   151    96    97    1
   152    93    94    1
