@<TRIPOS>MOLECULE
tmp/2z1mD01.pdb
 193 181 0 0 0
SMALL
GASTEIGER

@<TRIPOS>ATOM
      1  N        134.1340   29.3340   43.3660 N.3    84  SER84      -0.1217
      2  CA       134.1660   30.7280   43.7950 C.3    84  SER84       0.1889
      3  C        135.5460   31.4000   43.7350 C.2    84  SER84       0.2288
      4  O        135.6940   32.5390   44.1830 O.2    84  SER84      -0.2866
      5  CB       133.5380   30.8550   45.1760 C.3    84  SER84       0.2089
      6  OG       134.4310   30.3780   46.1540 O.3    84  SER84      -0.2183
      7  N        138.4270   33.2910   41.8920 N.3    86  VAL86      -0.1245
      8  CA       138.5900   34.1270   40.7000 C.3    86  VAL86       0.1561
      9  C        139.8090   33.7090   39.8710 C.2    86  VAL86       0.2260
     10  O        139.6980   33.5580   38.6550 O.2    86  VAL86      -0.2867
     11  CB       138.5920   35.6420   41.0410 C.3    86  VAL86       0.0252
     12  CG1      138.9570   36.4740   39.8270 C.3    86  VAL86       0.0019
     13  CG2      137.2060   36.0670   41.5620 C.3    86  VAL86       0.0019
     14  N        131.9240   41.2960   42.5360 N.3   127  GLU127     -0.1245
     15  CA       132.8500   40.9850   41.4580 C.3   127  GLU127      0.1567
     16  C        132.2670   41.2840   40.0580 C.2   127  GLU127      0.2260
     17  O        133.0130   41.5440   39.0980 O.2   127  GLU127     -0.2867
     18  CB       133.2990   39.5320   41.5900 C.3   127  GLU127      0.0388
     19  CG       134.6460   39.2320   41.0000 C.3   127  GLU127      0.1160
     20  CD       135.8270   39.8510   41.7390 C.2   127  GLU127      0.3649
     21  OE1      135.7390   40.2330   42.9380 O.co2 127  GLU127     -0.2457
     22  OE2      136.8870   39.9170   41.0990 O.co2 127  GLU127     -0.2457
     23  N        134.6970   33.9960   36.2040 N.3   149  TYR149     -0.1241
     24  CA       133.8630   33.9120   37.4010 C.3   149  TYR149      0.1605
     25  C        132.7980   35.0130   37.4120 C.2   149  TYR149      0.2264
     26  O        131.6140   34.7400   37.5920 O.2   149  TYR149     -0.2867
     27  CB       134.7360   34.0160   38.6600 C.3   149  TYR149      0.0534
     28  CG       133.9430   34.2250   39.9360 C.ar  149  TYR149     -0.0201
     29  CD1      133.2950   33.1460   40.5610 C.ar  149  TYR149     -0.0009
     30  CD2      133.8450   35.4860   40.5220 C.ar  149  TYR149     -0.0009
     31  CE1      132.5620   33.3280   41.7330 C.ar  149  TYR149      0.0417
     32  CE2      133.1130   35.6750   41.7140 C.ar  149  TYR149      0.0417
     33  CZ       132.4780   34.5870   42.3000 C.ar  149  TYR149      0.1957
     34  OH       131.7550   34.7480   43.4510 O.3   149  TYR149     -0.2866
     35  N        132.7360   41.5980   49.3040 N.3   178  ASN178     -0.1240
     36  CA       133.6360   40.6920   50.0070 C.3   178  ASN178      0.1653
     37  C        133.3250   40.6550   51.4840 C.2   178  ASN178      0.2266
     38  O        133.2430   41.7000   52.1260 O.2   178  ASN178     -0.2867
     39  CB       135.1010   41.1070   49.8340 C.3   178  ASN178      0.1155
     40  CG       135.5450   41.1110   48.4010 C.2   178  ASN178      0.2627
     41  OD1      134.9180   41.7380   47.5380 O.2   178  ASN178     -0.2716
     42  ND2      136.6520   40.4240   48.1300 N.am  178  ASN178     -0.0877
     43  N        134.1250   38.2690   55.1730 N.3   180  GLU180     -0.1245
     44  CA       135.1570   37.3930   55.6890 C.3   180  GLU180      0.1567
     45  C        134.8350   37.0190   57.1300 C.2   180  GLU180      0.2260
     46  O        133.8740   37.5250   57.7190 O.2   180  GLU180     -0.2867
     47  CB       136.5420   38.0860   55.6110 C.3   180  GLU180      0.0388
     48  CG       136.7800   39.0150   54.4010 C.3   180  GLU180      0.1160
     49  CD       136.8750   38.2780   53.0780 C.2   180  GLU180      0.3649
     50  OE1      137.5050   37.2040   53.0430 O.co2 180  GLU180     -0.2457
     51  OE2      136.3110   38.7660   52.0760 O.co2 180  GLU180     -0.2457
     52  N        136.4440   31.8090   56.6830 N.3   184  ARG184     -0.1245
     53  CA       136.8310   32.0830   55.2990 C.3   184  ARG184      0.1563
     54  C        137.8800   31.0740   54.8430 C.2   184  ARG184      0.2260
     55  O        138.7690   30.7100   55.6260 O.2   184  ARG184     -0.2867
     56  CB       137.3610   33.5190   55.1810 C.3   184  ARG184      0.0307
     57  CG       137.6800   33.9890   53.7780 C.3   184  ARG184      0.0489
     58  CD       136.4620   33.9280   52.8940 C.3   184  ARG184      0.2205
     59  NE       136.5700   34.8160   51.7370 N.pl3 184  ARG184     -0.0865
     60  CZ       135.8070   34.7030   50.6520 C.cat 184  ARG184      0.5346
     61  NH1      134.9080   33.7320   50.5840 N.pl3 184  ARG184      0.1354
     62  NH2      135.9480   35.5540   49.6310 N.pl3 184  ARG184      0.1354
     63  N        142.1910   29.9870   50.4840 N.3   187  GLU187     -0.1231
     64  CA       142.4410   30.3810   49.0920 C.3   187  GLU187      0.1699
     65  C        142.2550   31.9050   48.8740 C.2   187  GLU187      0.2592
     66  O        142.8360   32.5150   47.9700 O.2   187  GLU187     -0.2718
     67  CB       141.4980   29.5900   48.1760 C.3   187  GLU187      0.0402
     68  CG       141.3630   28.0960   48.5570 C.3   187  GLU187      0.1161
     69  CD       140.1870   27.7940   49.4930 C.2   187  GLU187      0.3649
     70  OE1      139.6160   28.7330   50.0700 O.co2 187  GLU187     -0.2457
     71  OE2      139.8120   26.6080   49.6420 O.co2 187  GLU187     -0.2457
     72  N        141.4450   32.5170   49.7220 N.am  188  PHE188     -0.1962
     73  CA       141.1050   33.9280   49.5980 C.3   188  PHE188      0.1771
     74  C        142.0770   34.7880   50.3770 C.2   188  PHE188      0.2619
     75  O        142.4940   34.3960   51.4780 O.2   188  PHE188     -0.2715
     76  CB       139.6720   34.1230   50.0710 C.3   188  PHE188      0.0574
     77  CG       138.6850   33.2590   49.3240 C.ar  188  PHE188     -0.0200
     78  CD1      138.2840   33.6030   48.0380 C.ar  188  PHE188     -0.0042
     79  CD2      138.2090   32.0730   49.8870 C.ar  188  PHE188     -0.0042
     80  CE1      137.3740   32.8080   47.3250 C.ar  188  PHE188     -0.0003
     81  CE2      137.3100   31.2580   49.1830 C.ar  188  PHE188     -0.0003
     82  CZ       136.8890   31.6330   47.8990 C.ar  188  PHE188     -0.0000
     83  N        142.4030   35.9600   49.8220 N.am  189  VAL189     -0.1963
     84  CA       143.5270   36.7690   50.3040 C.3   189  VAL189      0.1727
     85  C        143.5210   37.0100   51.8150 C.2   189  VAL189      0.2616
     86  O        144.5630   36.9240   52.4360 O.2   189  VAL189     -0.2715
     87  CB       143.7170   38.1110   49.5120 C.3   189  VAL189      0.0290
     88  CG1      142.7550   39.2060   49.9890 C.3   189  VAL189      0.0023
     89  CG2      145.1580   38.6170   49.6420 C.3   189  VAL189      0.0023
     90  N        142.3560   37.3000   52.3870 N.am  190  THR190     -0.1951
     91  CA       142.2810   37.7390   53.7730 C.3   190  THR190      0.1897
     92  C        142.7040   36.6290   54.7190 C.2   190  THR190      0.2313
     93  O        143.5380   36.8530   55.5900 O.2   190  THR190     -0.2863
     94  CB       140.8840   38.2420   54.1590 C.3   190  THR190      0.1794
     95  OG1      139.9450   37.1810   53.9910 O.3   190  THR190     -0.2208
     96  CG2      140.4730   39.4480   53.3070 C.3   190  THR190      0.0378
     97  N        144.2350   33.8220   53.7570 N.3   192  LYS192     -0.1245
     98  CA       145.6100   33.5170   53.3990 C.3   192  LYS192      0.1561
     99  C        146.5920   34.3260   54.2390 C.2   192  LYS192      0.2260
    100  O        147.5760   33.7680   54.7510 O.2   192  LYS192     -0.2867
    101  CB       145.8600   33.7700   51.9190 C.3   192  LYS192      0.0271
    102  CG       147.2750   33.5140   51.4950 C.3   192  LYS192      0.0035
    103  CD       147.4440   33.6430   49.9800 C.3   192  LYS192      0.0206
    104  CE       148.8810   33.3930   49.5870 C.3   192  LYS192      0.1093
    105  NZ       149.0940   33.4230   48.1030 N.3   192  LYS192     -0.1314
    106  N        152.2010   37.1050   48.1380 N.3   210  LEU210     -0.1231
    107  CA       150.9550   37.6670   47.6280 C.3   210  LEU210      0.1693
    108  C        151.1240   38.1950   46.2100 C.2   210  LEU210      0.2593
    109  O        152.2210   38.1720   45.6630 O.2   210  LEU210     -0.2718
    110  CB       150.4520   38.7710   48.5680 C.3   210  LEU210      0.0284
    111  CG       149.9810   38.2670   49.9360 C.3   210  LEU210      0.0019
    112  CD1      150.0290   39.3620   50.9750 C.3   210  LEU210      0.0001
    113  CD2      148.6040   37.6090   49.8890 C.3   210  LEU210      0.0001
    114  N        150.0350   38.6660   45.6180 N.am  211  GLY211     -0.1942
    115  CA       150.0930   39.2810   44.3040 C.3   211  GLY211      0.2014
    116  C        149.9600   40.7860   44.4020 C.2   211  GLY211      0.2638
    117  O        150.8640   41.4670   44.9190 O.2   211  GLY211     -0.2714
    118  N        148.8200   41.3030   43.9350 N.am  212  ASN212     -0.1972
    119  CA       148.5620   42.7430   43.8760 C.3   212  ASN212      0.1688
    120  C        148.2340   43.3520   45.2560 C.2   212  ASN212      0.2292
    121  O        147.1030   43.2510   45.7430 O.2   212  ASN212     -0.2864
    122  CB       147.4470   43.0190   42.8460 C.3   212  ASN212      0.1181
    123  CG       147.1890   44.5070   42.6180 C.2   212  ASN212      0.2629
    124  OD1      147.9570   45.3680   43.0470 O.2   212  ASN212     -0.2716
    125  ND2      146.0910   44.8090   41.9300 N.am  212  ASN212     -0.0877
    126  N        145.3960   46.4010   45.3480 N.3   215  ALA215     -0.1245
    127  CA       143.9600   46.1080   45.2110 C.3   215  ALA215      0.1562
    128  C        143.1560   46.6240   46.4060 C.2   215  ALA215      0.2260
    129  O        143.5530   46.4210   47.5680 O.2   215  ALA215     -0.2867
    130  CB       143.7420   44.5820   45.0240 C.3   215  ALA215      0.0290
    131  N        139.5480   46.7390   48.5220 N.3   217  ARG217     -0.1245
    132  CA       138.3010   46.0230   48.7550 C.3   217  ARG217      0.1563
    133  C        137.5140   46.5410   49.9340 C.2   217  ARG217      0.2260
    134  O        138.0710   46.9890   50.9470 O.2   217  ARG217     -0.2867
    135  CB       138.5480   44.5180   48.9590 C.3   217  ARG217      0.0307
    136  CG       139.1380   43.7970   47.7470 C.3   217  ARG217      0.0489
    137  CD       138.0890   43.6890   46.6070 C.3   217  ARG217      0.2205
    138  NE       138.6160   42.9580   45.4580 N.pl3 217  ARG217     -0.0865
    139  CZ       139.3250   43.5000   44.4750 C.cat 217  ARG217      0.5346
    140  NH1      139.5880   44.8070   44.4760 N.pl3 217  ARG217      0.1354
    141  NH2      139.7760   42.7310   43.4900 N.pl3 217  ARG217      0.1354
    142  N        135.5190   45.1410   52.7300 N.3   219  TRP219     -0.1241
    143  CA       135.5340   43.8530   53.4370 C.3   219  TRP219      0.1605
    144  C        134.6280   43.8700   54.6610 C.2   219  TRP219      0.2264
    145  O        134.8450   44.6520   55.5960 O.2   219  TRP219     -0.2867
    146  CB       136.9530   43.5000   53.8980 C.3   219  TRP219      0.0550
    147  CG       137.8560   42.8910   52.8810 C.ar  219  TRP219      0.0003
    148  CD1      137.6690   41.7040   52.2180 C.ar  219  TRP219      0.0946
    149  CD2      139.1390   43.3890   52.4580 C.ar  219  TRP219      0.0152
    150  NE1      138.7340   41.4590   51.3870 N.ar  219  TRP219     -0.2442
    151  CE2      139.6580   42.4640   51.5260 C.ar  219  TRP219      0.0810
    152  CE3      139.8990   44.5300   52.7800 C.ar  219  TRP219      0.0012
    153  CZ2      140.9020   42.6430   50.9010 C.ar  219  TRP219      0.0191
    154  CZ3      141.1370   44.7110   52.1530 C.ar  219  TRP219      0.0001
    155  CH2      141.6210   43.7770   51.2150 C.ar  219  TRP219      0.0015
    156  N        144.9480   45.6450   50.0830 N.3   251  VAL251     -0.1245
    157  CA       145.5010   44.3860   50.6000 C.3   251  VAL251      0.1561
    158  C        146.7320   44.6690   51.4790 C.2   251  VAL251      0.2260
    159  O        146.9010   44.0520   52.5380 O.2   251  VAL251     -0.2867
    160  CB       145.8240   43.3960   49.4670 C.3   251  VAL251      0.0252
    161  CG1      146.6200   42.1840   49.9830 C.3   251  VAL251      0.0019
    162  CG2      144.5120   42.9340   48.7790 C.3   251  VAL251      0.0019
    163  N        150.3950   35.3270   41.4000 N.3   293  PHE293     -0.1241
    164  CA       149.1510   35.6360   42.1220 C.3   293  PHE293      0.1605
    165  C        148.3710   36.8280   41.5620 C.2   293  PHE293      0.2264
    166  O        147.3310   37.1970   42.0920 O.2   293  PHE293     -0.2867
    167  CB       149.4090   35.7830   43.6270 C.3   293  PHE293      0.0534
    168  CG       149.9370   34.5340   44.2670 C.ar  293  PHE293     -0.0203
    169  CD1      149.1260   33.4120   44.4070 C.ar  293  PHE293     -0.0042
    170  CD2      151.2560   34.4680   44.7090 C.ar  293  PHE293     -0.0042
    171  CE1      149.6160   32.2340   44.9900 C.ar  293  PHE293     -0.0003
    172  CE2      151.7620   33.2950   45.2930 C.ar  293  PHE293     -0.0003
    173  CZ       150.9380   32.1800   45.4350 C.ar  293  PHE293     -0.0000
    174  N        146.0540   38.4970   38.5820 N.3   295  ARG295     -0.1245
    175  CA       145.0410   37.9950   37.6530 C.3   295  ARG295      0.1563
    176  C        145.2360   38.6170   36.2680 C.2   295  ARG295      0.2260
    177  O        145.6570   39.7700   36.1660 O.2   295  ARG295     -0.2867
    178  CB       143.6270   38.2690   38.1820 C.3   295  ARG295      0.0307
    179  CG       143.1340   37.2310   39.2230 C.3   295  ARG295      0.0489
    180  CD       143.7630   37.5190   40.5680 C.3   295  ARG295      0.2205
    181  NE       143.4270   36.5660   41.6220 N.pl3 295  ARG295     -0.0865
    182  CZ       142.4010   36.6920   42.4590 C.cat 295  ARG295      0.5346
    183  NH1      141.5550   37.7050   42.3450 N.pl3 295  ARG295      0.1354
    184  NH2      142.2040   35.7790   43.4070 N.pl3 295  ARG295      0.1354
    185  N        142.5290   42.5880   36.1550 N.3   298  GLU298     -0.1245
    186  CA       142.3260   42.8540   37.5670 C.3   298  GLU298      0.1567
    187  C        141.0990   43.7220   37.8510 C.2   298  GLU298      0.2260
    188  O        140.5790   44.4070   36.9580 O.2   298  GLU298     -0.2867
    189  CB       143.6010   43.4340   38.2030 C.3   298  GLU298      0.0388
    190  CG       143.4860   43.8220   39.6980 C.3   298  GLU298      0.1160
    191  CD       143.3620   42.6330   40.6560 C.2   298  GLU298      0.3649
    192  OE1      142.2890   41.9910   40.7460 O.co2 298  GLU298     -0.2457
    193  OE2      144.3500   42.3620   41.3660 O.co2 298  GLU298     -0.2457
@<TRIPOS>BOND
     1   185   186    1
     2   177   176    2
     3    23    24    1
     4   176   175    1
     5   188   187    2
     6    24    25    1
     7    24    27    1
     8    25    26    2
     9   186   187    1
    10   186   189    1
    11   175   178    1
    12   175   174    1
    13   178   179    1
    14   189   190    1
    15    10     9    2
    16    27    28    1
    17    17    16    2
    18   179   180    1
    19   190   191    1
    20    12    11    1
    21     9     8    1
    22    28    30   ar
    23    28    29   ar
    24    16    15    1
    25    30    32   ar
    26    29    31   ar
    27   180   181    1
    28   191   192   ar
    29   191   193   ar
    30     8    11    1
    31     8     7    1
    32    19    18    1
    33    19    20    1
    34    11    13    1
    35    22    20   ar
    36   163   164    1
    37    15    18    1
    38    15    14    1
    39   165   166    2
    40   165   164    1
    41   181   182    2
    42    32    33   ar
    43    31    33   ar
    44    20    21   ar
    45   125   123   am
    46   164   167    1
    47    33    34    1
    48   183   182    1
    49   182   184    1
    50   123   122    1
    51   123   124    2
    52   122   119    1
    53     1     2    1
    54   141   139    1
    55   167   168    1
    56     3     2    1
    57     3     4    2
    58     2     5    1
    59   119   118    1
    60   119   120    1
    61   118   116   am
    62   168   169   ar
    63   168   170   ar
    64   115   116    1
    65   115   114    1
    66   116   117    2
    67   169   171   ar
    68   139   140    1
    69   139   138    2
    70   170   172   ar
    71   171   173   ar
    72   130   127    1
    73     5     6    1
    74   127   126    1
    75   127   128    1
    76   120   121    2
    77   172   173   ar
    78   138   137    1
    79   114   108   am
    80   109   108    2
    81   108   107    1
    82   128   129    2
    83   137   136    1
    84    80    82   ar
    85    80    78   ar
    86    41    40    2
    87   107   106    1
    88   107   110    1
    89   136   135    1
    90    82    81   ar
    91    66    65    2
    92    78    77   ar
    93   105   104    1
    94    42    40   am
    95    67    68    1
    96    67    64    1
    97    40    39    1
    98   131   132    1
    99    68    69    1
   100   110   111    1
   101   132   135    1
   102   132   133    1
   103   162   160    1
   104    65    64    1
   105    65    72   am
   106    64    63    1
   107    81    79   ar
   108    35    36    1
   109    77    79   ar
   110    77    76    1
   111   160   161    1
   112   160   157    1
   113    69    71   ar
   114    69    70   ar
   115    87    89    1
   116    87    88    1
   117    87    84    1
   118   104   103    1
   119    73    72    1
   120    73    76    1
   121    73    74    1
   122    62    60    1
   123    83    84    1
   124    83    74   am
   125    39    36    1
   126   113   111    1
   127   133   134    2
   128   111   112    1
   129   103   102    1
   130    36    37    1
   131   156   157    1
   132    84    85    1
   133    74    75    2
   134    61    60    1
   135   157   158    1
   136    60    59    2
   137   153   155   ar
   138   153   151   ar
   139   155   154   ar
   140   150   151   ar
   141   150   148   ar
   142   158   159    2
   143    37    38    2
   144   102   101    1
   145   151   149   ar
   146    59    58    1
   147    85    90   am
   148    85    86    2
   149   101    98    1
   150    51    49   ar
   151   154   152   ar
   152   148   147   ar
   153    90    91    1
   154   149   152   ar
   155   149   147   ar
   156   142   143    1
   157   147   146    1
   158    58    57    1
   159    50    49   ar
   160    49    48    1
   161    96    94    1
   162    98    97    1
   163    98    99    1
   164   143   146    1
   165   143   144    1
   166    91    94    1
   167    91    92    1
   168    57    56    1
   169    95    94    1
   170    99   100    2
   171    48    47    1
   172   144   145    2
   173    92    93    2
   174    54    53    1
   175    54    55    2
   176    43    44    1
   177    56    53    1
   178    53    52    1
   179    47    44    1
   180    44    45    1
   181    45    46    2
