@<TRIPOS>MOLECULE
tmp/2z1qB00.pdb
 150 148 0 0 0
SMALL
GASTEIGER

@<TRIPOS>ATOM
      1  N         10.3480   87.5030   70.4500 N.3   281  TYR281     -0.1241
      2  CA         8.9900   87.9550   70.6890 C.3   281  TYR281      0.1605
      3  C          8.0490   87.4010   69.6140 C.2   281  TYR281      0.2264
      4  O          6.9170   87.0200   69.9250 O.2   281  TYR281     -0.2867
      5  CB         8.9230   89.4880   70.7180 C.3   281  TYR281      0.0534
      6  CG         7.6010   90.0180   71.2120 C.ar  281  TYR281     -0.0201
      7  CD1        7.2620   89.9500   72.5660 C.ar  281  TYR281     -0.0009
      8  CD2        6.6660   90.5340   70.3230 C.ar  281  TYR281     -0.0009
      9  CE1        6.0190   90.3850   73.0210 C.ar  281  TYR281      0.0417
     10  CE2        5.4060   90.9700   70.7670 C.ar  281  TYR281      0.0417
     11  CZ         5.0960   90.8930   72.1160 C.ar  281  TYR281      0.1957
     12  OH         3.8710   91.3300   72.5610 O.3   281  TYR281     -0.2866
     13  N          4.8060   85.5950   71.1990 N.3   285  ARG285     -0.1245
     14  CA         3.5350   86.2990   71.1110 C.3   285  ARG285      0.1563
     15  C          2.5620   85.6100   70.1730 C.2   285  ARG285      0.2260
     16  O          2.8500   85.4180   68.9950 O.2   285  ARG285     -0.2867
     17  CB         3.7450   87.7410   70.6450 C.3   285  ARG285      0.0307
     18  CG         2.4500   88.5450   70.5630 C.3   285  ARG285      0.0489
     19  CD         1.7890   88.6850   71.9340 C.3   285  ARG285      0.2205
     20  NE         0.6720   89.6260   71.9110 N.pl3 285  ARG285     -0.0865
     21  CZ        -0.0340   89.9900   72.9790 C.cat 285  ARG285      0.5346
     22  NH1       -1.0290   90.8540   72.8540 N.pl3 285  ARG285      0.1354
     23  NH2        0.2460   89.4840   74.1730 N.pl3 285  ARG285      0.1354
     24  N         -1.2310   85.7720   68.4810 N.3   287  GLN287     -0.1231
     25  CA        -2.4350   86.5590   68.2060 C.3   287  GLN287      0.1698
     26  C         -3.2060   85.7900   67.1450 C.2   287  GLN287      0.2592
     27  O         -2.6070   85.1890   66.2400 O.2   287  GLN287     -0.2718
     28  CB        -2.1190   87.9700   67.6880 C.3   287  GLN287      0.0381
     29  CG        -1.6030   88.9250   68.7580 C.3   287  GLN287      0.0905
     30  CD        -2.5980   89.1420   69.8790 C.2   287  GLN287      0.2608
     31  OE1       -3.5770   89.8810   69.7290 O.2   287  GLN287     -0.2717
     32  NE2       -2.3600   88.4860   71.0090 N.am  287  GLN287     -0.0878
     33  N         -4.5290   85.8060   67.2540 N.am  288  PHE288     -0.1976
     34  CA        -5.3710   85.0910   66.3080 C.3   288  PHE288      0.1639
     35  C         -4.9450   83.6240   66.2570 C.2   288  PHE288      0.2290
     36  O         -4.7770   83.0520   65.1820 O.2   288  PHE288     -0.2864
     37  CB        -5.2780   85.7170   64.9070 C.3   288  PHE288      0.0560
     38  CG        -5.7440   87.1510   64.8470 C.ar  288  PHE288     -0.0200
     39  CD1       -4.8460   88.2010   65.0160 C.ar  288  PHE288     -0.0042
     40  CD2       -7.0880   87.4470   64.6410 C.ar  288  PHE288     -0.0042
     41  CE1       -5.2810   89.5310   64.9820 C.ar  288  PHE288     -0.0003
     42  CE2       -7.5350   88.7770   64.6050 C.ar  288  PHE288     -0.0003
     43  CZ        -6.6310   89.8190   64.7760 C.ar  288  PHE288     -0.0000
     44  N          2.7650   85.3760   65.9350 N.3   292  ILE292     -0.1245
     45  CA         2.7890   86.4340   64.9320 C.3   292  ILE292      0.1561
     46  C          3.8880   86.2170   63.9070 C.2   292  ILE292      0.2260
     47  O          3.8010   86.6920   62.7710 O.2   292  ILE292     -0.2867
     48  CB         2.9150   87.8310   65.5980 C.3   292  ILE292      0.0252
     49  CG1        4.1780   87.9370   66.4620 C.3   292  ILE292      0.0019
     50  CG2        1.7020   88.0630   66.4620 C.3   292  ILE292      0.0019
     51  CD1        4.3350   89.3040   67.1420 C.3   292  ILE292      0.0001
     52  N          2.7890   85.1580   60.4910 N.3   295  PHE295     -0.1227
     53  CA         2.0970   86.0450   59.5690 C.3   295  PHE295      0.1736
     54  C          3.0670   86.6010   58.5420 C.2   295  PHE295      0.2596
     55  O          4.2360   86.8770   58.8550 O.2   295  PHE295     -0.2718
     56  CB         1.4280   87.1900   60.3240 C.3   295  PHE295      0.0547
     57  CG         0.3350   86.7440   61.2470 C.ar  295  PHE295     -0.0202
     58  CD1        0.3570   87.0960   62.5910 C.ar  295  PHE295     -0.0042
     59  CD2       -0.7210   85.9680   60.7750 C.ar  295  PHE295     -0.0042
     60  CE1       -0.6540   86.6850   63.4540 C.ar  295  PHE295     -0.0003
     61  CE2       -1.7380   85.5510   61.6340 C.ar  295  PHE295     -0.0003
     62  CZ        -1.7000   85.9100   62.9730 C.ar  295  PHE295     -0.0000
     63  N          2.5690   86.7680   57.3210 N.am  296  GLY296     -0.1942
     64  CA         3.4000   87.2790   56.2520 C.3   296  GLY296      0.2014
     65  C          4.1340   88.5830   56.5330 C.2   296  GLY296      0.2639
     66  O          5.3410   88.6460   56.3670 O.2   296  GLY296     -0.2714
     67  N          3.4160   89.6190   56.9710 N.am  297  LEU297     -0.1963
     68  CA         4.0340   90.9270   57.2350 C.3   297  LEU297      0.1728
     69  C          5.1410   90.9020   58.2890 C.2   297  LEU297      0.2616
     70  O          6.1110   91.6580   58.1870 O.2   297  LEU297     -0.2715
     71  CB         2.9640   91.9540   57.6090 C.3   297  LEU297      0.0311
     72  CG         1.9390   92.2390   56.5050 C.3   297  LEU297      0.0022
     73  CD1        0.8900   93.2140   56.9960 C.3   297  LEU297      0.0001
     74  CD2        2.6430   92.7960   55.2820 C.3   297  LEU297      0.0001
     75  N          5.0060   90.0530   59.3020 N.am  298  ILE298     -0.1977
     76  CA         6.0570   89.9740   60.3040 C.3   298  ILE298      0.1596
     77  C          7.2580   89.2820   59.6670 C.2   298  ILE298      0.2287
     78  O          8.3970   89.7160   59.8610 O.2   298  ILE298     -0.2864
     79  CB         5.6330   89.1580   61.5200 C.3   298  ILE298      0.0276
     80  CG1        4.4710   89.8530   62.2090 C.3   298  ILE298      0.0022
     81  CG2        6.7870   88.9890   62.4700 C.3   298  ILE298      0.0022
     82  CD1        3.1860   89.5960   61.5290 C.3   298  ILE298      0.0001
     83  N          9.3680   91.5750   57.6820 N.3   301  LYS301     -0.1245
     84  CA        10.2580   92.4130   58.4940 C.3   301  LYS301      0.1561
     85  C         11.4900   91.6230   58.9410 C.2   301  LYS301      0.2260
     86  O         12.6270   92.0540   58.7380 O.2   301  LYS301     -0.2867
     87  CB         9.5070   92.9280   59.7230 C.3   301  LYS301      0.0271
     88  CG         8.2630   93.7380   59.4220 C.3   301  LYS301      0.0035
     89  CD         7.6840   94.2420   60.7240 C.3   301  LYS301      0.0206
     90  CE         6.2470   94.7220   60.5740 C.3   301  LYS301      0.1093
     91  NZ         6.1570   95.8520   59.6370 N.3   301  LYS301     -0.1314
     92  N          7.9690   97.7910   66.1070 N.3   367  GLN367     -0.1231
     93  CA         6.6940   97.4340   65.4850 C.3   367  GLN367      0.1698
     94  C          6.2660   96.0030   65.8180 C.2   367  GLN367      0.2592
     95  O          5.1130   95.7620   66.1490 O.2   367  GLN367     -0.2718
     96  CB         6.7710   97.6320   63.9630 C.3   367  GLN367      0.0381
     97  CG         5.4020   97.6840   63.2960 C.3   367  GLN367      0.0905
     98  CD         4.5660   98.8970   63.7150 C.2   367  GLN367      0.2608
     99  OE1        3.3800   98.9580   63.4250 O.2   367  GLN367     -0.2717
    100  NE2        5.1820   99.8580   64.3910 N.am  367  GLN367     -0.0878
    101  N          7.2040   95.0650   65.7410 N.am  368  ILE368     -0.1966
    102  CA         6.9570   93.6570   66.0450 C.3   368  ILE368      0.1727
    103  C          6.3620   93.4810   67.4530 C.2   368  ILE368      0.2616
    104  O          5.4830   92.6390   67.6460 O.2   368  ILE368     -0.2715
    105  CB         8.2970   92.8590   65.8720 C.3   368  ILE368      0.0290
    106  CG1        8.6150   92.7260   64.3790 C.3   368  ILE368      0.0022
    107  CG2        8.2010   91.4650   66.4790 C.3   368  ILE368      0.0023
    108  CD1        9.9370   92.0610   64.1160 C.3   368  ILE368      0.0001
    109  N          6.7960   94.2970   68.4200 N.am  369  HIS369     -0.1959
    110  CA         6.2800   94.2150   69.8030 C.3   369  HIS369      0.1787
    111  C          4.9900   94.9740   70.0580 C.2   369  HIS369      0.2621
    112  O          4.5090   95.0310   71.1960 O.2   369  HIS369     -0.2715
    113  CB         7.3040   94.7480   70.8160 C.3   369  HIS369      0.0785
    114  CG         8.5560   93.9400   70.8960 C.ar  369  HIS369      0.0821
    115  ND1        9.4510   93.8620   69.8510 N.ar  369  HIS369     -0.2267
    116  CD2        9.0840   93.2060   71.9020 C.ar  369  HIS369      0.1154
    117  CE1       10.4800   93.1190   70.2110 C.ar  369  HIS369      0.1986
    118  NE2       10.2840   92.7100   71.4510 N.ar  369  HIS369     -0.2212
    119  N          4.4470   95.5810   69.0110 N.am  370  GLY370     -0.1940
    120  CA         3.2210   96.3410   69.1690 C.3   370  GLY370      0.2014
    121  C          3.3140   97.3930   70.2560 C.2   370  GLY370      0.2639
    122  O          4.3070   98.1250   70.3390 O.2   370  GLY370     -0.2714
    123  N          2.2840   97.4720   71.0960 N.am  371  GLY371     -0.1939
    124  CA         2.2880   98.4560   72.1670 C.3   371  GLY371      0.2014
    125  C          3.4650   98.2960   73.1090 C.2   371  GLY371      0.2638
    126  O          4.0980   99.2840   73.5210 O.2   371  GLY371     -0.2714
    127  N          3.7910   97.0530   73.4400 N.am  372  TYR372     -0.1973
    128  CA         4.8900   96.7830   74.3470 C.3   372  TYR372      0.1639
    129  C          6.2230   97.3380   73.8700 C.2   372  TYR372      0.2290
    130  O          7.1340   97.5260   74.6790 O.2   372  TYR372     -0.2864
    131  CB         5.0050   95.2840   74.5980 C.3   372  TYR372      0.0560
    132  CG         3.7010   94.6900   75.0670 C.ar  372  TYR372     -0.0198
    133  CD1        2.7290   94.2890   74.1520 C.ar  372  TYR372     -0.0009
    134  CD2        3.4160   94.5720   76.4280 C.ar  372  TYR372     -0.0009
    135  CE1        1.5000   93.7840   74.5790 C.ar  372  TYR372      0.0417
    136  CE2        2.1960   94.0730   76.8670 C.ar  372  TYR372      0.0417
    137  CZ         1.2410   93.6810   75.9400 C.ar  372  TYR372      0.1957
    138  OH         0.0250   93.2120   76.3880 O.3   372  TYR372     -0.2866
    139  N          6.5890  100.1640   72.9830 N.3   374  TYR374     -0.1241
    140  CA         6.5300  101.5630   73.4070 C.3   374  TYR374      0.1605
    141  C          6.6910  101.6470   74.9310 C.2   374  TYR374      0.2264
    142  O          6.6370  102.7370   75.5140 O.2   374  TYR374     -0.2867
    143  CB         5.1720  102.1610   72.9990 C.3   374  TYR374      0.0534
    144  CG         5.1590  103.6750   72.8540 C.ar  374  TYR374     -0.0201
    145  CD1        5.8430  104.3010   71.8060 C.ar  374  TYR374     -0.0009
    146  CD2        4.4730  104.4870   73.7690 C.ar  374  TYR374     -0.0009
    147  CE1        5.8500  105.6860   71.6730 C.ar  374  TYR374      0.0417
    148  CE2        4.4700  105.8670   73.6420 C.ar  374  TYR374      0.0417
    149  CZ         5.1620  106.4620   72.5930 C.ar  374  TYR374      0.1957
    150  OH         5.1720  107.8340   72.4750 O.3   374  TYR374     -0.2866
@<TRIPOS>BOND
     1    74    72    1
     2    64    65    1
     3    64    63    1
     4    66    65    2
     5    72    73    1
     6    72    71    1
     7    65    67   am
     8    67    68    1
     9    68    71    1
    10    68    69    1
    11    63    54   am
    12    83    84    1
    13    70    69    2
    14    69    75   am
    15    84    85    1
    16    84    87    1
    17    54    55    2
    18    54    53    1
    19    86    85    2
    20    75    76    1
    21    88    87    1
    22    88    89    1
    23    53    56    1
    24    53    52    1
    25    91    90    1
    26    77    78    2
    27    77    76    1
    28    76    79    1
    29    56    57    1
    30    90    89    1
    31    59    57   ar
    32    59    61   ar
    33    57    58   ar
    34    79    80    1
    35    79    81    1
    36    82    80    1
    37    61    62   ar
    38    58    60   ar
    39    47    46    2
    40    62    60   ar
    41    97    98    1
    42    97    96    1
    43    99    98    2
    44    98   100   am
    45    46    45    1
    46    96    93    1
    47   108   106    1
    48   106   105    1
    49    42    40   ar
    50    42    43   ar
    51    40    38   ar
    52    43    41   ar
    53    38    37    1
    54    38    39   ar
    55    37    34    1
    56    45    48    1
    57    45    44    1
    58    41    39   ar
    59    36    35    2
    60    93    94    1
    61    93    92    1
    62    48    50    1
    63    48    49    1
    64   101    94   am
    65   101   102    1
    66    94    95    2
    67   105   102    1
    68   105   107    1
    69   102   103    1
    70    27    26    2
    71    35    34    1
    72    34    33    1
    73    49    51    1
    74    26    33   am
    75    26    25    1
    76   103   104    2
    77   103   109   am
    78    28    25    1
    79    28    29    1
    80    25    24    1
    81   109   110    1
    82    29    30    1
    83    16    15    2
    84   119   120    1
    85   119   111   am
    86   120   121    1
    87     3     4    2
    88     3     2    1
    89    31    30    2
    90   110   111    1
    91   110   113    1
    92   115   117   ar
    93   115   114   ar
    94    30    32   am
    95   111   112    2
    96    15    14    1
    97   117   118   ar
    98   121   122    2
    99   121   123   am
   100     8    10   ar
   101     8     6   ar
   102     1     2    1
   103    18    17    1
   104    18    19    1
   105    17    14    1
   106     2     5    1
   107     5     6    1
   108    10    11   ar
   109   113   114    1
   110   114   116   ar
   111   123   124    1
   112    14    13    1
   113     6     7   ar
   114   118   116   ar
   115   147   145   ar
   116   147   149   ar
   117   145   144   ar
   118    20    19    1
   119    20    21    2
   120    11    12    1
   121    11     9   ar
   122   124   125    1
   123   150   149    1
   124     7     9   ar
   125   149   148   ar
   126   144   143    1
   127   144   146   ar
   128    22    21    1
   129    21    23    1
   130   139   140    1
   131   143   140    1
   132   125   127   am
   133   125   126    2
   134   140   141    1
   135   127   128    1
   136   148   146   ar
   137   129   128    1
   138   129   130    2
   139   133   135   ar
   140   133   132   ar
   141   128   131    1
   142   135   137   ar
   143   131   132    1
   144   141   142    2
   145   132   134   ar
   146   137   138    1
   147   137   136   ar
   148   134   136   ar
