@<TRIPOS>MOLECULE
tmp/2z1qB01.pdb
 218 209 0 0 0
SMALL
GASTEIGER

@<TRIPOS>ATOM
      1  N         29.0150  103.9540   74.6950 N.3   104  VAL104     -0.1245
      2  CA        29.5540  105.2850   74.4000 C.3   104  VAL104      0.1561
      3  C         30.7000  105.5790   75.3820 C.2   104  VAL104      0.2260
      4  O         31.7190  106.1410   75.0010 O.2   104  VAL104     -0.2867
      5  CB        28.4510  106.3750   74.4920 C.3   104  VAL104      0.0252
      6  CG1       29.0310  107.7670   74.2370 C.3   104  VAL104      0.0019
      7  CG2       27.3740  106.0810   73.4550 C.3   104  VAL104      0.0019
      8  N         34.0580  106.3710   73.5790 N.3   108  ALA108     -0.1245
      9  CA        34.6890  107.6770   73.6610 C.3   108  ALA108      0.1562
     10  C         36.1030  107.5320   74.2490 C.2   108  ALA108      0.2260
     11  O         37.0600  108.1170   73.7590 O.2   108  ALA108     -0.2867
     12  CB        33.8400  108.6130   74.5020 C.3   108  ALA108      0.0290
     13  N         38.3470  108.5910   70.5880 N.3   112  ILE112     -0.1245
     14  CA        38.7130  109.9930   70.7380 C.3   112  ILE112      0.1561
     15  C         39.4930  110.3090   72.0170 C.2   112  ILE112      0.2260
     16  O         40.2660  111.2570   72.0580 O.2   112  ILE112     -0.2867
     17  CB        37.4660  110.8810   70.6730 C.3   112  ILE112      0.0252
     18  CG1       36.4040  110.3570   71.6490 C.3   112  ILE112      0.0019
     19  CG2       36.9500  110.9170   69.2430 C.3   112  ILE112      0.0019
     20  CD1       35.1040  111.1620   71.6610 C.3   112  ILE112      0.0001
     21  N         37.0780  113.6920   75.2280 N.3   142  TYR142     -0.1227
     22  CA        37.4590  114.4400   74.0350 C.3   142  TYR142      0.1736
     23  C         36.5800  115.6830   73.9490 C.2   142  TYR142      0.2596
     24  O         35.3570  115.5760   73.8700 O.2   142  TYR142     -0.2718
     25  CB        37.2070  113.5450   72.8240 C.3   142  TYR142      0.0548
     26  CG        37.7450  114.0380   71.5140 C.ar  142  TYR142     -0.0200
     27  CD1       39.1070  114.0120   71.2420 C.ar  142  TYR142     -0.0009
     28  CD2       36.8760  114.4510   70.5030 C.ar  142  TYR142     -0.0009
     29  CE1       39.5970  114.3780   69.9830 C.ar  142  TYR142      0.0417
     30  CE2       37.3440  114.8150   69.2580 C.ar  142  TYR142      0.0417
     31  CZ        38.7020  114.7760   68.9980 C.ar  142  TYR142      0.1957
     32  OH        39.1530  115.1310   67.7490 O.3   142  TYR142     -0.2866
     33  N         37.2040  116.8520   73.9410 N.am  143  CYS143     -0.1956
     34  CA        36.4580  118.0990   73.9090 C.3   143  CYS143      0.1843
     35  C         36.7160  118.9310   72.6670 C.2   143  CYS143      0.2625
     36  O         37.5990  119.7830   72.6380 O.2   143  CYS143     -0.2714
     37  CB        36.7710  118.9140   75.1660 C.3   143  CYS143      0.0997
     38  SG        36.0890  118.2130   76.5900 S.3   143  CYS143     -0.0797
     39  N         35.9020  118.6900   71.6500 N.am  144  LEU144     -0.1963
     40  CA        36.0300  119.3850   70.3950 C.3   144  LEU144      0.1728
     41  C         34.8280  120.2730   70.0980 C.2   144  LEU144      0.2617
     42  O         34.9800  121.4470   69.8050 O.2   144  LEU144     -0.2715
     43  CB        36.2220  118.3670   69.2760 C.3   144  LEU144      0.0311
     44  CG        36.2440  118.9330   67.8590 C.3   144  LEU144      0.0022
     45  CD1       37.2000  120.1050   67.8220 C.3   144  LEU144      0.0001
     46  CD2       36.6610  117.8620   66.8600 C.3   144  LEU144      0.0001
     47  N         33.6410  119.6880   70.1790 N.am  145  THR145     -0.1937
     48  CA        32.4030  120.3990   69.8940 C.3   145  THR145      0.2028
     49  C         32.1100  121.5610   70.8510 C.2   145  THR145      0.2642
     50  O         32.4330  121.5030   72.0310 O.2   145  THR145     -0.2714
     51  CB        31.2120  119.4060   69.9100 C.3   145  THR145      0.1808
     52  OG1       31.3730  118.4530   68.8520 O.3   145  THR145     -0.2208
     53  CG2       29.8950  120.1410   69.7240 C.3   145  THR145      0.0379
     54  N         31.5040  122.6170   70.3210 N.am  146  GLU146     -0.1963
     55  CA        31.1380  123.7830   71.1240 C.3   146  GLU146      0.1718
     56  C         29.6980  124.1720   70.7800 C.2   146  GLU146      0.2458
     57  O         29.1580  123.7290   69.7640 O.2   146  GLU146     -0.2730
     58  CB        32.0950  124.9550   70.8440 C.3   146  GLU146      0.0428
     59  CG        33.5620  124.6240   71.1550 C.3   146  GLU146      0.1163
     60  CD        34.4860  125.8310   71.0750 C.2   146  GLU146      0.3649
     61  OE1       33.9980  126.9710   70.9220 O.co2 146  GLU146     -0.2457
     62  OE2       35.7140  125.6330   71.1770 O.co2 146  GLU146     -0.2457
     63  N         29.0510  124.9810   71.6360 N.am  147  PRO147     -0.2716
     64  CA        27.6670  125.4130   71.4020 C.3   147  PRO147      0.1536
     65  C         27.4420  125.9250   69.9700 C.2   147  PRO147      0.2599
     66  O         26.4590  125.5550   69.3200 O.2   147  PRO147     -0.2715
     67  CB        27.4580  126.4900   72.4720 C.3   147  PRO147      0.0310
     68  CG        28.3140  125.9810   73.6110 C.3   147  PRO147      0.0237
     69  CD        29.5650  125.4950   72.9210 C.3   147  PRO147      0.0939
     70  N         28.3580  126.7520   69.4720 N.am  148  GLY148     -0.1941
     71  CA        28.2140  127.2690   68.1240 C.3   148  GLY148      0.2014
     72  C         28.8700  126.4420   67.0170 C.2   148  GLY148      0.2640
     73  O         28.6200  126.6800   65.8360 O.2   148  GLY148     -0.2714
     74  N         29.6990  125.4640   67.3790 N.am  149  SER149     -0.1935
     75  CA        30.3690  124.6610   66.3540 C.3   149  SER149      0.2055
     76  C         30.2650  123.1510   66.5510 C.2   149  SER149      0.2644
     77  O         30.6980  122.6150   67.5710 O.2   149  SER149     -0.2714
     78  CB        31.8490  125.0610   66.2730 C.3   149  SER149      0.2130
     79  OG        32.5110  124.8370   67.5080 O.3   149  SER149     -0.2179
     80  N         29.7190  122.4630   65.5540 N.am  150  GLY150     -0.1939
     81  CA        29.5800  121.0220   65.6340 C.3   150  GLY150      0.2014
     82  C         30.2080  120.3320   64.4390 C.2   150  GLY150      0.2639
     83  O         31.3190  119.8140   64.5330 O.2   150  GLY150     -0.2714
     84  N         29.4950  120.3220   63.3140 N.am  151  SER151     -0.1949
     85  CA        30.0030  119.6880   62.1030 C.3   151  SER151      0.1924
     86  C         31.2210  120.4600   61.6410 C.2   151  SER151      0.2314
     87  O         32.1360  119.9010   61.0370 O.2   151  SER151     -0.2863
     88  CB        28.9450  119.6910   61.0030 C.3   151  SER151      0.2116
     89  OG        27.8460  118.8740   61.3580 O.3   151  SER151     -0.2180
     90  N         30.8060  121.7410   74.2080 N.3   176  GLN176     -0.1231
     91  CA        29.4770  121.1520   74.3020 C.3   176  GLN176      0.1698
     92  C         29.3670  119.6430   74.0850 C.2   176  GLN176      0.2592
     93  O         30.0030  119.0800   73.1840 O.2   176  GLN176     -0.2718
     94  CB        28.5680  121.8570   73.2860 C.3   176  GLN176      0.0381
     95  CG        27.0920  121.5920   73.4900 C.3   176  GLN176      0.0905
     96  CD        26.4980  122.4600   74.5770 C.2   176  GLN176      0.2608
     97  OE1       25.8500  123.4690   74.2990 O.2   176  GLN176     -0.2717
     98  NE2       26.7290  122.0810   75.8280 N.am  176  GLN176     -0.0878
     99  N         28.5300  118.9990   74.8990 N.am  177  TRP177     -0.1962
    100  CA        28.2760  117.5590   74.8060 C.3   177  TRP177      0.1771
    101  C         29.5230  116.6840   75.0060 C.2   177  TRP177      0.2619
    102  O         29.8710  115.9310   74.1110 O.2   177  TRP177     -0.2715
    103  CB        27.6920  117.2020   73.4220 C.3   177  TRP177      0.0590
    104  CG        26.3490  117.7900   73.0220 C.ar  177  TRP177      0.0006
    105  CD1       26.1150  118.6840   72.0080 C.ar  177  TRP177      0.0946
    106  CD2       25.0640  117.4690   73.5720 C.ar  177  TRP177      0.0152
    107  NE1       24.7700  118.9360   71.8950 N.ar  177  TRP177     -0.2442
    108  CE2       24.1000  118.2040   72.8410 C.ar  177  TRP177      0.0810
    109  CE3       24.6320  116.6310   74.6100 C.ar  177  TRP177      0.0012
    110  CZ2       22.7330  118.1260   73.1150 C.ar  177  TRP177      0.0191
    111  CZ3       23.2670  116.5550   74.8830 C.ar  177  TRP177      0.0001
    112  CH2       22.3360  117.3000   74.1360 C.ar  177  TRP177      0.0015
    113  N         30.1860  116.7510   76.1530 N.am  178  ILE178     -0.1963
    114  CA        31.3890  115.9310   76.3460 C.3   178  ILE178      0.1727
    115  C         31.0950  114.5900   77.0130 C.2   178  ILE178      0.2616
    116  O         30.7480  114.5450   78.1860 O.2   178  ILE178     -0.2715
    117  CB        32.4380  116.6910   77.1900 C.3   178  ILE178      0.0290
    118  CG1       33.0530  117.7950   76.3540 C.3   178  ILE178      0.0022
    119  CG2       33.5480  115.7700   77.6460 C.3   178  ILE178      0.0023
    120  CD1       32.1090  118.8810   76.0230 C.3   178  ILE178      0.0001
    121  N         31.2270  113.5010   76.2620 N.am  179  SER179     -0.1950
    122  CA        30.9950  112.1720   76.8400 C.3   179  SER179      0.1924
    123  C         32.0660  111.8840   77.8930 C.2   179  SER179      0.2314
    124  O         33.2320  112.2470   77.7070 O.2   179  SER179     -0.2863
    125  CB        31.0670  111.0780   75.7520 C.3   179  SER179      0.2116
    126  OG        30.2010  111.3430   74.6670 O.3   179  SER179     -0.2180
    127  N         19.1090  113.4780   77.6590 N.3   218  LYS218     -0.1245
    128  CA        18.8450  113.1510   76.2590 C.3   218  LYS218      0.1561
    129  C         17.7800  112.0790   76.0610 C.2   218  LYS218      0.2260
    130  O         17.3210  111.4650   77.0250 O.2   218  LYS218     -0.2867
    131  CB        20.1370  112.7430   75.5610 C.3   218  LYS218      0.0271
    132  CG        20.9880  111.7590   76.3260 C.3   218  LYS218      0.0035
    133  CD        22.1260  112.4670   77.0560 C.3   218  LYS218      0.0206
    134  CE        22.9080  111.5100   77.9730 C.3   218  LYS218      0.1093
    135  NZ        23.9300  110.6660   77.2920 N.3   218  LYS218     -0.1314
    136  N         20.6660  106.5680   75.4030 N.3   221  ILE221     -0.1245
    137  CA        21.9960  106.3150   75.9620 C.3   221  ILE221      0.1561
    138  C         22.1510  107.0600   77.2930 C.2   221  ILE221      0.2260
    139  O         23.1490  107.7470   77.5330 O.2   221  ILE221     -0.2867
    140  CB        23.1700  106.6980   74.9970 C.3   221  ILE221      0.0252
    141  CG1       23.1280  108.1670   74.6000 C.3   221  ILE221      0.0019
    142  CG2       23.1110  105.8670   73.7400 C.3   221  ILE221      0.0019
    143  CD1       24.3270  108.5440   73.7630 C.3   221  ILE221      0.0001
    144  N         27.2860  112.7510   79.8260 N.3   226  THR226     -0.1218
    145  CA        27.4850  113.8080   78.8510 C.3   226  THR226      0.1862
    146  C         27.2450  115.1480   79.5460 C.2   226  THR226      0.2287
    147  O         26.1490  115.4350   80.0300 O.2   226  THR226     -0.2866
    148  CB        26.5210  113.6680   77.6490 C.3   226  THR226      0.1770
    149  OG1       26.2790  112.2850   77.3710 O.3   226  THR226     -0.2211
    150  CG2       27.1410  114.2980   76.4150 C.3   226  THR226      0.0375
    151  N         20.9420  108.3540   68.0780 N.3   389  ILE389     -0.1245
    152  CA        22.1550  109.1780   68.0840 C.3   389  ILE389      0.1561
    153  C         23.1900  108.7920   67.0210 C.2   389  ILE389      0.2260
    154  O         23.9530  109.6330   66.5460 O.2   389  ILE389     -0.2867
    155  CB        22.8250  109.1420   69.4900 C.3   389  ILE389      0.0252
    156  CG1       23.8770  110.2500   69.6050 C.3   389  ILE389      0.0019
    157  CG2       23.4630  107.7780   69.7360 C.3   389  ILE389      0.0019
    158  CD1       23.3210  111.6570   69.4090 C.3   389  ILE389      0.0001
    159  N         24.1240  110.7060   63.8600 N.3   392  ILE392     -0.1231
    160  CA        24.7010  112.0230   64.1460 C.3   392  ILE392      0.1692
    161  C         26.1800  111.9180   64.5240 C.2   392  ILE392      0.2592
    162  O         26.9970  112.7220   64.0590 O.2   392  ILE392     -0.2718
    163  CB        23.9070  112.7120   65.2560 C.3   392  ILE392      0.0266
    164  CG1       22.4820  112.9100   64.7560 C.3   392  ILE392      0.0019
    165  CG2       24.5360  114.0530   65.6430 C.3   392  ILE392      0.0020
    166  CD1       21.5760  113.4920   65.7640 C.3   392  ILE392      0.0001
    167  N         26.5130  110.9150   65.3410 N.am  393  PHE393     -0.1976
    168  CA        27.8790  110.6210   65.7900 C.3   393  PHE393      0.1639
    169  C         28.8620  110.4240   64.6300 C.2   393  PHE393      0.2290
    170  O         28.4790  110.0030   63.5410 O.2   393  PHE393     -0.2864
    171  CB        27.9200  109.3150   66.6060 C.3   393  PHE393      0.0560
    172  CG        27.5560  109.4710   68.0640 C.ar  393  PHE393     -0.0200
    173  CD1       27.5930  110.7130   68.6740 C.ar  393  PHE393     -0.0042
    174  CD2       27.2330  108.3540   68.8360 C.ar  393  PHE393     -0.0042
    175  CE1       27.3210  110.8430   70.0280 C.ar  393  PHE393     -0.0003
    176  CE2       26.9590  108.4760   70.1980 C.ar  393  PHE393     -0.0003
    177  CZ        27.0030  109.7160   70.7980 C.ar  393  PHE393     -0.0000
    178  N         27.5840  113.6390   60.9270 N.3   396  THR396     -0.1218
    179  CA        26.2160  113.2940   60.5780 C.3   396  THR396      0.1862
    180  C         26.2900  112.5290   59.2580 C.2   396  THR396      0.2287
    181  O         27.2970  112.6120   58.5460 O.2   396  THR396     -0.2866
    182  CB        25.3540  114.5530   60.3490 C.3   396  THR396      0.1770
    183  OG1       25.8010  115.2250   59.1660 O.3   396  THR396     -0.2211
    184  CG2       25.4590  115.5010   61.5210 C.3   396  THR396      0.0375
    185  N         24.7930  113.2280   56.6420 N.3   398  GLU398     -0.1231
    186  CA        24.8260  114.2150   55.5610 C.3   398  GLU398      0.1699
    187  C         26.3060  114.5000   55.2680 C.2   398  GLU398      0.2592
    188  O         26.7540  114.3980   54.1270 O.2   398  GLU398     -0.2718
    189  CB        24.1260  115.5210   55.9750 C.3   398  GLU398      0.0402
    190  CG        22.5980  115.4380   56.0970 C.3   398  GLU398      0.1161
    191  CD        22.1330  114.5670   57.2410 C.2   398  GLU398      0.3649
    192  OE1       22.4550  114.8810   58.4060 O.co2 398  GLU398     -0.2457
    193  OE2       21.4470  113.5610   56.9790 O.co2 398  GLU398     -0.2457
    194  N         27.0610  114.8370   56.3160 N.am  399  ILE399     -0.1980
    195  CA        28.4970  115.1210   56.1810 C.3   399  ILE399      0.1595
    196  C         29.2510  113.9360   55.5630 C.2   399  ILE399      0.2287
    197  O         30.0960  114.1200   54.6870 O.2   399  ILE399     -0.2864
    198  CB        29.1390  115.4970   57.5590 C.3   399  ILE399      0.0276
    199  CG1       29.3510  117.0070   57.6390 C.3   399  ILE399      0.0022
    200  CG2       30.4890  114.8180   57.7460 C.3   399  ILE399      0.0022
    201  CD1       28.0970  117.7900   57.5520 C.3   399  ILE399      0.0001
    202  N         28.6070  113.5210   51.8430 N.3   402  LEU402     -0.1245
    203  CA        29.3300  114.4750   51.0070 C.3   402  LEU402      0.1561
    204  C         30.7900  114.0570   50.8230 C.2   402  LEU402      0.2260
    205  O         31.4170  114.3980   49.8130 O.2   402  LEU402     -0.2867
    206  CB        29.2720  115.8740   51.6200 C.3   402  LEU402      0.0270
    207  CG        28.1250  116.7880   51.1770 C.3   402  LEU402      0.0019
    208  CD1       26.8390  116.0050   51.0680 C.3   402  LEU402      0.0001
    209  CD2       27.9780  117.9310   52.1670 C.3   402  LEU402      0.0001
    210  N         24.8890  119.2220   46.6360 N.3   448  GLN448     -0.1245
    211  CA        24.8570  118.1610   47.6320 C.3   448  GLN448      0.1566
    212  C         23.8530  117.0580   47.3730 C.2   448  GLN448      0.2260
    213  O         24.1160  115.9050   47.7340 O.2   448  GLN448     -0.2867
    214  CB        24.5920  118.7520   49.0090 C.3   448  GLN448      0.0367
    215  CG        25.6460  119.7190   49.4520 C.3   448  GLN448      0.0905
    216  CD        25.3890  120.2320   50.8450 C.2   448  GLN448      0.2608
    217  OE1       24.2570  120.1940   51.3320 O.2   448  GLN448     -0.2717
    218  NE2       26.4310  120.7340   51.4920 N.am  448  GLN448     -0.0878
@<TRIPOS>BOND
     1   210   211    1
     2   212   211    1
     3   212   213    2
     4   211   214    1
     5   214   215    1
     6   215   216    1
     7   205   204    2
     8   204   203    1
     9   216   217    2
    10   216   218   am
    11   203   206    1
    12   203   202    1
    13   208   207    1
    14   207   206    1
    15   207   209    1
    16   188   187    2
    17   197   196    2
    18   187   186    1
    19   187   194   am
    20   186   189    1
    21   186   185    1
    22   196   195    1
    23   189   190    1
    24   190   191    1
    25   195   194    1
    26   195   198    1
    27   193   191   ar
    28   191   192   ar
    29   201   199    1
    30   198   199    1
    31   198   200    1
    32   181   180    2
    33   183   182    1
    34   180   179    1
    35   182   179    1
    36   182   184    1
    37   179   178    1
    38    88    89    1
    39    88    85    1
    40    87    86    2
    41    86    85    1
    42    85    84    1
    43    84    82   am
    44   170   169    2
    45   159   160    1
    46   162   161    2
    47   160   161    1
    48   160   163    1
    49    82    83    2
    50    82    81    1
    51   161   167   am
    52   169   168    1
    53   164   163    1
    54   164   166    1
    55   163   165    1
    56   167   168    1
    57    80    81    1
    58    80    76   am
    59   168   171    1
    60    73    72    2
    61    78    75    1
    62    78    79    1
    63    75    76    1
    64    75    74    1
    65   154   153    2
    66    76    77    2
    67   171   172    1
    68    46    44    1
    69    72    74   am
    70    72    71    1
    71   153   152    1
    72    32    31    1
    73    45    44    1
    74    44    43    1
    75   172   173   ar
    76   172   174   ar
    77   151   152    1
    78   152   155    1
    79    71    70    1
    80   173   175   ar
    81   174   176   ar
    82    52    51    1
    83    31    30   ar
    84    31    29   ar
    85    19    17    1
    86    30    28   ar
    87    43    40    1
    88    66    65    2
    89   158   156    1
    90    70    65   am
    91   155   156    1
    92   155   157    1
    93    53    51    1
    94    57    56    2
    95    42    41    2
    96    48    51    1
    97    48    47    1
    98    48    49    1
    99    65    64    1
   100    29    27   ar
   101   175   177   ar
   102    41    47   am
   103    41    40    1
   104   176   177   ar
   105    54    49   am
   106    54    55    1
   107    40    39    1
   108    28    26   ar
   109    13    14    1
   110    17    14    1
   111    17    18    1
   112    14    15    1
   113    56    55    1
   114    56    63   am
   115    58    55    1
   116    58    59    1
   117    49    50    2
   118    61    60   ar
   119    60    59    1
   120    60    62   ar
   121    27    26   ar
   122    64    63    1
   123    64    67    1
   124    26    25    1
   125    63    69    1
   126    18    20    1
   127    39    35   am
   128   107   105   ar
   129   107   108   ar
   130   105   104   ar
   131    15    16    2
   132    67    68    1
   133    36    35    2
   134    35    34    1
   135    25    22    1
   136   108   110   ar
   137   108   106   ar
   138    69    68    1
   139   104   103    1
   140   104   106   ar
   141   110   112   ar
   142    93    92    2
   143    94    95    1
   144    94    91    1
   145   103   100    1
   146     7     5    1
   147    95    96    1
   148   106   109   ar
   149     8     9    1
   150     9    10    1
   151     9    12    1
   152   142   140    1
   153    11    10    2
   154   143   141    1
   155    24    23    2
   156    34    33    1
   157    34    37    1
   158    33    23   am
   159    23    22    1
   160    22    21    1
   161    92    91    1
   162    92    99   am
   163   102   101    2
   164   112   111   ar
   165    90    91    1
   166     6     5    1
   167    97    96    2
   168     2     5    1
   169     2     1    1
   170     2     3    1
   171    96    98   am
   172   141   140    1
   173   109   111   ar
   174   126   125    1
   175   100    99    1
   176   100   101    1
   177   140   137    1
   178     4     3    2
   179   101   113   am
   180    37    38    1
   181   136   137    1
   182   131   128    1
   183   131   132    1
   184   125   122    1
   185   137   138    1
   186   120   118    1
   187   129   128    1
   188   129   130    2
   189   113   114    1
   190   128   127    1
   191   121   122    1
   192   121   115   am
   193   132   133    1
   194   114   115    1
   195   114   117    1
   196   118   117    1
   197   150   148    1
   198   122   123    1
   199   115   116    2
   200   133   134    1
   201   117   119    1
   202   135   134    1
   203   138   139    2
   204   149   148    1
   205   148   145    1
   206   124   123    2
   207   145   146    1
   208   145   144    1
   209   146   147    2
