@<TRIPOS>MOLECULE
tmp/2z1uA00.pdb
 84 77 0 0 0
SMALL
GASTEIGER

@<TRIPOS>ATOM
      1  N         18.2090   22.8020    4.0830 N.3    49  THR49      -0.1203
      2  CA        16.9160   22.1800    3.7850 C.3    49  THR49       0.1994
      3  C         16.7330   20.8820    4.5840 C.2    49  THR49       0.2617
      4  O         17.6930   20.1850    4.8480 O.2    49  THR49      -0.2717
      5  CB        16.7300   21.8980    2.2680 C.3    49  THR49       0.1784
      6  OG1       15.3530   21.6140    2.0130 O.3    49  THR49      -0.2211
      7  CG2       17.5780   20.6770    1.7880 C.3    49  THR49       0.0376
      8  N         15.4930   20.5600    4.9270 N.am   50  ASP50      -0.1973
      9  CA        15.1800   19.2860    5.5780 C.3    50  ASP50       0.1709
     10  C         13.7740   18.8640    5.2230 C.2    50  ASP50       0.2293
     11  O         12.8750   19.7040    5.1660 O.2    50  ASP50      -0.2864
     12  CB        15.3150   19.3940    7.1210 C.3    50  ASP50       0.1436
     13  CG        16.7100   19.0610    7.6010 C.2    50  ASP50       0.3671
     14  OD1       17.0940   17.8880    7.4510 O.co2  50  ASP50      -0.2456
     15  OD2       17.4120   19.9380    8.1530 O.co2  50  ASP50      -0.2456
     16  N         18.6910   24.5030   12.1050 N.3    75  ASP75      -0.1239
     17  CA        19.8230   24.1890   11.2350 C.3    75  ASP75       0.1674
     18  C         20.5250   25.4460   10.6870 C.2    75  ASP75       0.2266
     19  O         21.7490   25.5240   10.6700 O.2    75  ASP75      -0.2867
     20  CB        19.4000   23.2510   10.0870 C.3    75  ASP75       0.1410
     21  CG        19.9080   21.8270   10.2870 C.2    75  ASP75       0.3668
     22  OD1       19.6180   20.9220    9.4710 O.co2  75  ASP75      -0.2456
     23  OD2       20.6490   21.6170   11.2590 O.co2  75  ASP75      -0.2456
     24  N         25.7900   22.3410   16.7310 N.3   213  ARG213     -0.1231
     25  CA        25.0730   21.3110   15.9660 C.3   213  ARG213      0.1694
     26  C         23.8760   20.8180   16.7730 C.2   213  ARG213      0.2592
     27  O         23.9370   20.7500   18.0040 O.2   213  ARG213     -0.2718
     28  CB        25.9960   20.1350   15.5670 C.3   213  ARG213      0.0321
     29  CG        25.3160   19.1290   14.6210 C.3   213  ARG213      0.0489
     30  CD        26.2870   18.4890   13.6810 C.3   213  ARG213      0.2205
     31  NE        26.9180   19.4450   12.7640 N.pl3 213  ARG213     -0.0865
     32  CZ        27.9900   19.1520   12.0260 C.cat 213  ARG213      0.5346
     33  NH1       28.5170   17.9320   12.0840 N.pl3 213  ARG213      0.1354
     34  NH2       28.5280   20.0570   11.2150 N.pl3 213  ARG213      0.1354
     35  N         22.8140   20.4270   16.0730 N.am  214  ASP214     -0.1974
     36  CA        21.6190   19.9110   16.7310 C.3   214  ASP214      0.1709
     37  C         21.6240   18.3790   16.6610 C.2   214  ASP214      0.2293
     38  O         21.6860   17.8010   15.5750 O.2   214  ASP214     -0.2864
     39  CB        20.3570   20.5080   16.0840 C.3   214  ASP214      0.1436
     40  CG        20.3390   20.3280   14.6070 C.2   214  ASP214      0.3671
     41  OD1       21.4210   20.2750   13.9760 O.co2 214  ASP214     -0.2456
     42  OD2       19.2440   20.1990   14.0550 O.co2 214  ASP214     -0.2456
     43  N         20.0240   15.5900   16.1610 N.3   216  THR216     -0.1203
     44  CA        18.7890   15.0460   15.6290 C.3   216  THR216      0.1994
     45  C         18.9930   13.5540   15.3530 C.2   216  THR216      0.2617
     46  O         19.2020   12.8080   16.2910 O.2   216  THR216     -0.2717
     47  CB        18.2640   15.8560   14.3920 C.3   216  THR216      0.1784
     48  OG1       19.2760   15.9410   13.3770 O.3   216  THR216     -0.2211
     49  CG2       17.8770   17.2470   14.8030 C.3   216  THR216      0.0376
     50  N         18.9380   13.1070   14.0960 N.am  217  ARG217     -0.1979
     51  CA        19.0540   11.6690   13.8210 C.3   217  ARG217      0.1597
     52  C         20.3990   11.1640   14.2650 C.2   217  ARG217      0.2287
     53  O         21.4190   11.7830   13.9790 O.2   217  ARG217     -0.2864
     54  CB        18.8480   11.3430   12.3460 C.3   217  ARG217      0.0334
     55  CG        17.4140   11.4520   11.9160 C.3   217  ARG217      0.0492
     56  CD        17.3740   12.2440   10.6080 C.3   217  ARG217      0.2205
     57  NE        17.5020   11.3370    9.5120 N.pl3 217  ARG217     -0.0865
     58  CZ        17.9200   11.6300    8.2830 C.cat 217  ARG217      0.5346
     59  NH1       18.3230   12.8420    7.9280 N.pl3 217  ARG217      0.1354
     60  NH2       17.9640   10.6500    7.4110 N.pl3 217  ARG217      0.1354
     61  N         30.5160   13.1150   14.3400 N.3   226  GLU226     -0.1245
     62  CA        30.6280   13.9800   13.1610 C.3   226  GLU226      0.1567
     63  C         31.6290   15.0870   13.4320 C.2   226  GLU226      0.2260
     64  O         32.5550   15.3000   12.6540 O.2   226  GLU226     -0.2867
     65  CB        29.2810   14.6090   12.7870 C.3   226  GLU226      0.0388
     66  CG        28.2370   13.6190   12.3550 C.3   226  GLU226      0.1160
     67  CD        26.9130   14.3090   12.0680 C.2   226  GLU226      0.3649
     68  OE1       26.0430   13.6830   11.4390 O.co2 226  GLU226     -0.2457
     69  OE2       26.7700   15.4860   12.4200 O.co2 226  GLU226     -0.2457
     70  N         14.9080   17.3410   19.1310 N.3   265  GLU265     -0.1245
     71  CA        14.3710   18.3510   18.2010 C.3   265  GLU265      0.1567
     72  C         14.2960   19.7680   18.7970 C.2   265  GLU265      0.2260
     73  O         13.7290   20.6840   18.1960 O.2   265  GLU265     -0.2867
     74  CB        13.0170   17.9060   17.6140 C.3   265  GLU265      0.0388
     75  CG        13.0950   16.6760   16.6760 C.3   265  GLU265      0.1160
     76  CD        13.8190   16.9410   15.3490 C.2   265  GLU265      0.3649
     77  OE1       14.1160   15.9760   14.6190 O.co2 265  GLU265     -0.2457
     78  OE2       14.1190   18.0930   15.0270 O.co2 265  GLU265     -0.2457
     79  N         11.5900   11.7060   12.7940 N.3   335  CYS335     -0.1235
     80  CA        11.3700   13.0900   12.3750 C.3   335  CYS335      0.1677
     81  C         11.0500   13.0970   10.8910 C.2   335  CYS335      0.2270
     82  O         11.0360   12.0430   10.2210 O.2   335  CYS335     -0.2867
     83  CB        12.5990   13.9620   12.6440 C.3   335  CYS335      0.0956
     84  SG        14.0920   13.3780   11.8030 S.3   335  CYS335     -0.0801
@<TRIPOS>BOND
     1     7     5    1
     2     6     5    1
     3     5     2    1
     4     2     1    1
     5     2     3    1
     6     3     4    2
     7     3     8   am
     8     8     9    1
     9    11    10    2
    10    10     9    1
    11     9    12    1
    12    12    13    1
    13    60    58    1
    14    14    13   ar
    15    13    15   ar
    16    59    58    1
    17    58    57    2
    18    22    21   ar
    19    57    56    1
    20    20    21    1
    21    20    17    1
    22    82    81    2
    23    21    23   ar
    24    56    55    1
    25    19    18    2
    26    18    17    1
    27    81    80    1
    28    34    32    1
    29    17    16    1
    30    68    67   ar
    31    84    83    1
    32    55    54    1
    33    32    33    1
    34    32    31    2
    35    67    66    1
    36    67    69   ar
    37    54    51    1
    38    66    65    1
    39    80    83    1
    40    80    79    1
    41    64    63    2
    42    31    30    1
    43    65    62    1
    44    62    63    1
    45    62    61    1
    46    48    47    1
    47    30    29    1
    48    51    50    1
    49    51    52    1
    50    41    40   ar
    51    53    52    2
    52    42    40   ar
    53    50    45   am
    54    47    49    1
    55    47    44    1
    56    40    39    1
    57    77    76   ar
    58    29    28    1
    59    78    76   ar
    60    76    75    1
    61    45    44    1
    62    45    46    2
    63    28    25    1
    64    38    37    2
    65    44    43    1
    66    25    24    1
    67    25    26    1
    68    35    36    1
    69    35    26   am
    70    39    36    1
    71    37    36    1
    72    75    74    1
    73    26    27    2
    74    74    71    1
    75    73    72    2
    76    71    72    1
    77    71    70    1
