@<TRIPOS>MOLECULE
tmp/2z1yB00.pdb
 189 177 0 0 0
SMALL
GASTEIGER

@<TRIPOS>ATOM
      1  N         42.9640   22.4030   24.7090 N.3    19  ILE19      -0.1245
      2  CA        42.6490   21.5290   23.5830 C.3    19  ILE19       0.1561
      3  C         41.4360   21.9760   22.7700 C.2    19  ILE19       0.2260
      4  O         41.5480   22.1730   21.5600 O.2    19  ILE19      -0.2867
      5  CB        42.4280   20.0710   24.0620 C.3    19  ILE19       0.0252
      6  CG1       43.7720   19.4750   24.5070 C.3    19  ILE19       0.0019
      7  CG2       41.7670   19.2390   22.9570 C.3    19  ILE19       0.0019
      8  CD1       43.6410   18.2150   25.3460 C.3    19  ILE19       0.0001
      9  N         42.1410   25.2470   20.9500 N.3    22  LEU22      -0.1231
     10  CA        43.0220   25.1310   19.7870 C.3    22  LEU22       0.1693
     11  C         42.2940   24.5180   18.5860 C.2    22  LEU22       0.2591
     12  O         42.5400   24.8840   17.4380 O.2    22  LEU22      -0.2718
     13  CB        44.2370   24.2620   20.1130 C.3    22  LEU22       0.0284
     14  CG        45.2810   24.8510   21.0680 C.3    22  LEU22       0.0019
     15  CD1       46.3400   23.8220   21.3620 C.3    22  LEU22       0.0001
     16  CD2       45.9040   26.0790   20.4480 C.3    22  LEU22       0.0001
     17  N         41.3850   23.5980   18.8670 N.am   23  LEU23      -0.1980
     18  CA        40.6640   22.8940   17.8170 C.3    23  LEU23       0.1596
     19  C         39.5310   23.6380   17.1120 C.2    23  LEU23       0.2287
     20  O         39.0380   23.1540   16.0830 O.2    23  LEU23      -0.2864
     21  CB        40.1640   21.5560   18.3640 C.3    23  LEU23       0.0297
     22  CG        41.2980   20.5750   18.7030 C.3    23  LEU23       0.0022
     23  CD1       40.7210   19.4340   19.5310 C.3    23  LEU23       0.0001
     24  CD2       41.9640   20.0210   17.4240 C.3    23  LEU23       0.0001
     25  N         47.6860   25.6660   17.2510 N.3    36  GLY36      -0.1210
     26  CA        47.7410   24.2120   17.2240 C.3    36  GLY36       0.1956
     27  C         48.7790   23.5730   16.3070 C.2    36  GLY36       0.2612
     28  O         49.1300   24.1130   15.2470 O.2    36  GLY36      -0.2717
     29  N         49.2880   22.4140   16.7170 N.am   37  GLY37      -0.1942
     30  CA        50.2510   21.6990   15.8970 C.3    37  GLY37       0.2014
     31  C         49.5090   20.9670   14.7870 C.2    37  GLY37       0.2638
     32  O         49.5110   19.7370   14.7040 O.2    37  GLY37      -0.2714
     33  N         48.8550   21.7410   13.9390 N.am   38  LEU38      -0.1977
     34  CA        48.0920   21.1940   12.8200 C.3    38  LEU38       0.1596
     35  C         49.0220   20.9020   11.6340 C.2    38  LEU38       0.2287
     36  O         49.7230   21.7840   11.1470 O.2    38  LEU38      -0.2864
     37  CB        47.0010   22.1920   12.4070 C.3    38  LEU38       0.0297
     38  CG        45.6180   22.0850   13.0650 C.3    38  LEU38       0.0022
     39  CD1       45.6560   22.3570   14.5800 C.3    38  LEU38       0.0001
     40  CD2       44.7130   23.1020   12.3890 C.3    38  LEU38       0.0001
     41  N         43.8130    7.9940   17.9390 N.3    96  GLY96      -0.1210
     42  CA        44.7630    9.0590   18.1750 C.3    96  GLY96       0.1956
     43  C         45.6520    8.6340   19.3270 C.2    96  GLY96       0.2613
     44  O         45.2570    7.7880   20.1420 O.2    96  GLY96      -0.2717
     45  N         46.8570    9.1830   19.4040 N.am   97  SER97      -0.1938
     46  CA        47.7090    8.8060   20.5130 C.3    97  SER97       0.2055
     47  C         47.1860    9.5010   21.7790 C.2    97  SER97       0.2642
     48  O         47.5380    9.1050   22.8920 O.2    97  SER97      -0.2714
     49  CB        49.1910    9.1160   20.1960 C.3    97  SER97       0.2130
     50  OG        49.3790   10.4630   19.8010 O.3    97  SER97      -0.2179
     51  N         46.3320   10.5150   21.6150 N.am   98  GLN98      -0.1976
     52  CA        45.7290   11.1650   22.7870 C.3    98  GLN98       0.1601
     53  C         44.9510   10.0770   23.5450 C.2    98  GLN98       0.2287
     54  O         44.9170   10.0550   24.7800 O.2    98  GLN98      -0.2864
     55  CB        44.7560   12.2860   22.3900 C.3    98  GLN98       0.0394
     56  CG        44.1050   12.9600   23.6380 C.3    98  GLN98       0.0908
     57  CD        45.1290   13.5470   24.6070 C.2    98  GLN98       0.2608
     58  OE1       44.9940   13.4450   25.8510 O.2    98  GLN98      -0.2717
     59  NE2       46.1340   14.1760   24.0630 N.am   98  GLN98      -0.0878
     60  N         47.2820    8.0220   25.5760 N.3   101  LEU101     -0.1245
     61  CA        47.6620    8.7140   26.8100 C.3   101  LEU101      0.1561
     62  C         46.6110    8.5290   27.8850 C.2   101  LEU101      0.2260
     63  O         46.9400    8.2990   29.0580 O.2   101  LEU101     -0.2867
     64  CB        47.9090   10.2120   26.5420 C.3   101  LEU101      0.0270
     65  CG        49.0970   10.4890   25.6040 C.3   101  LEU101      0.0019
     66  CD1       49.1090   11.9770   25.1820 C.3   101  LEU101      0.0001
     67  CD2       50.4200   10.1320   26.2970 C.3   101  LEU101      0.0001
     68  N         54.0260   18.0070   26.9980 N.3   122  TYR122     -0.1227
     69  CA        52.8050   18.0680   26.2000 C.3   122  TYR122      0.1736
     70  C         51.5500   18.2860   27.0310 C.2   122  TYR122      0.2595
     71  O         51.2480   17.4980   27.9360 O.2   122  TYR122     -0.2718
     72  CB        52.7160   16.7850   25.3530 C.3   122  TYR122      0.0548
     73  CG        51.4360   16.6460   24.5800 C.ar  122  TYR122     -0.0200
     74  CD1       50.9160   17.7100   23.8430 C.ar  122  TYR122     -0.0009
     75  CD2       50.7380   15.4400   24.5910 C.ar  122  TYR122     -0.0009
     76  CE1       49.7190   17.5770   23.1400 C.ar  122  TYR122      0.0417
     77  CE2       49.5470   15.2830   23.8960 C.ar  122  TYR122      0.0417
     78  CZ        49.0380   16.3570   23.1750 C.ar  122  TYR122      0.1957
     79  OH        47.8270   16.2200   22.5340 O.3   122  TYR122     -0.2866
     80  N         50.7870   19.3350   26.7190 N.am  123  MET123     -0.1979
     81  CA        49.6030   19.6160   27.5230 C.3   123  MET123      0.1605
     82  C         48.5200   18.5400   27.4660 C.2   123  MET123      0.2287
     83  O         47.7560   18.3930   28.4110 O.2   123  MET123     -0.2864
     84  CB        49.0060   20.9860   27.1710 C.3   123  MET123      0.0413
     85  CG        48.0230   20.9860   26.0210 C.3   123  MET123      0.0598
     86  SD        48.8470   20.8970   24.4790 S.3   123  MET123     -0.1393
     87  CE        47.3940   20.6100   23.3140 C.3   123  MET123      0.0692
     88  N         59.2250   12.6260   25.5030 N.3   166  ILE166     -0.1245
     89  CA        59.0470   12.8070   24.0540 C.3   166  ILE166      0.1561
     90  C         60.4810   13.1610   23.6490 C.2   166  ILE166      0.2260
     91  O         60.8220   14.3300   23.5000 O.2   166  ILE166     -0.2867
     92  CB        58.1190   14.0250   23.7510 C.3   166  ILE166      0.0252
     93  CG1       56.8120   13.9240   24.5430 C.3   166  ILE166      0.0019
     94  CG2       57.8590   14.1020   22.2300 C.3   166  ILE166      0.0019
     95  CD1       56.0030   15.2470   24.5700 C.3   166  ILE166      0.0001
     96  N         57.2300   18.2970   22.4950 N.3   171  ASN171     -0.1240
     97  CA        56.1420   19.2730   22.4730 C.3   171  ASN171      0.1653
     98  C         56.2200   19.7430   23.9250 C.2   171  ASN171      0.2266
     99  O         55.9930   18.9640   24.8520 O.2   171  ASN171     -0.2867
    100  CB        54.8010   18.5830   22.2050 C.3   171  ASN171      0.1155
    101  CG        53.6630   19.5690   22.0170 C.2   171  ASN171      0.2627
    102  OD1       53.7600   20.7350   22.4070 O.2   171  ASN171     -0.2716
    103  ND2       52.5610   19.0910   21.4400 N.am  171  ASN171     -0.0877
    104  N         56.5670    8.9540   23.8800 N.3   199  ASP199     -0.1239
    105  CA        55.6360    9.4760   22.8930 C.3   199  ASP199      0.1674
    106  C         56.4660    9.8800   21.6820 C.2   199  ASP199      0.2266
    107  O         57.2440   10.8340   21.7530 O.2   199  ASP199     -0.2867
    108  CB        54.9130   10.6840   23.4940 C.3   199  ASP199      0.1410
    109  CG        53.7740   11.1560   22.6510 C.2   199  ASP199      0.3668
    110  OD1       53.8350   10.9820   21.4120 O.co2 199  ASP199     -0.2456
    111  OD2       52.8310   11.7190   23.2300 O.co2 199  ASP199     -0.2456
    112  N         55.3320   10.9370   18.5950 N.3   201  ALA201     -0.1231
    113  CA        54.4880   11.6000   17.6030 C.3   201  ALA201      0.1694
    114  C         55.2810   12.2350   16.4530 C.2   201  ALA201      0.2592
    115  O         54.8460   12.1780   15.2900 O.2   201  ALA201     -0.2718
    116  CB        53.6500   12.6730   18.2820 C.3   201  ALA201      0.0304
    117  N         56.4290   12.8300   16.7780 N.am  202  TYR202     -0.1976
    118  CA        57.2430   13.5180   15.7760 C.3   202  TYR202      0.1639
    119  C         58.4300   12.6990   15.2550 C.2   202  TYR202      0.2290
    120  O         59.3590   13.2480   14.6590 O.2   202  TYR202     -0.2864
    121  CB        57.6940   14.8900   16.3540 C.3   202  TYR202      0.0560
    122  CG        56.5180   15.7210   16.8470 C.ar  202  TYR202     -0.0198
    123  CD1       55.6480   16.3530   15.9400 C.ar  202  TYR202     -0.0009
    124  CD2       56.2060   15.7860   18.2090 C.ar  202  TYR202     -0.0009
    125  CE1       54.4990   17.0070   16.3810 C.ar  202  TYR202      0.0417
    126  CE2       55.0540   16.4460   18.6630 C.ar  202  TYR202      0.0417
    127  CZ        54.2020   17.0440   17.7390 C.ar  202  TYR202      0.1957
    128  OH        53.0130   17.6070   18.1510 O.3   202  TYR202     -0.2866
    129  N         51.8770    7.6800   16.0090 N.3   232  SER232     -0.1217
    130  CA        50.6090    8.1420   15.4720 C.3   232  SER232      0.1889
    131  C         50.7310    8.3940   13.9830 C.2   232  SER232      0.2288
    132  O         51.8310    8.5720   13.4640 O.2   232  SER232     -0.2866
    133  CB        50.2160    9.4530   16.1670 C.3   232  SER232      0.2089
    134  OG        49.0210    9.9990   15.6330 O.3   232  SER232     -0.2183
    135  N         48.9770   10.8630   12.7960 N.3   234  SER234     -0.1202
    136  CA        48.5270   12.2550   12.7180 C.3   234  SER234      0.2020
    137  C         49.4800   13.2410   12.0820 C.2   234  SER234      0.2618
    138  O         49.0610   14.1010   11.3100 O.2   234  SER234     -0.2717
    139  CB        48.1730   12.7860   14.1130 C.3   234  SER234      0.2103
    140  OG        47.0800   12.0780   14.6510 O.3   234  SER234     -0.2182
    141  N         50.7610   13.1400   12.4070 N.am  235  LYS235     -0.1979
    142  CA        51.7170   14.0970   11.8680 C.3   235  LYS235      0.1596
    143  C         52.2960   13.7120   10.5180 C.2   235  LYS235      0.2287
    144  O         52.9670   14.5370    9.8710 O.2   235  LYS235     -0.2864
    145  CB        52.8600   14.3010   12.8630 C.3   235  LYS235      0.0298
    146  CG        52.4130   14.4670   14.3180 C.3   235  LYS235      0.0038
    147  CD        51.5390   15.6880   14.5400 C.3   235  LYS235      0.0206
    148  CE        51.1150   15.7580   16.0290 C.3   235  LYS235      0.1093
    149  NZ        50.4140   17.0120   16.3710 N.3   235  LYS235     -0.1314
    150  N         45.6860   13.8330   10.8610 N.3   239  PRO239     -0.2116
    151  CA        45.3020   13.8750   12.2740 C.3   239  PRO239      0.1372
    152  C         43.7890   13.7100   12.4210 C.2   239  PRO239      0.2244
    153  O         43.3220   13.1390   13.3910 O.2   239  PRO239     -0.2868
    154  CB        45.7890   15.2580   12.7280 C.3   239  PRO239      0.0268
    155  CG        45.6710   16.0940   11.4900 C.3   239  PRO239      0.0207
    156  CD        46.0870   15.1650   10.3640 C.3   239  PRO239      0.0892
    157  N         42.1370   10.2280   13.1790 N.3   242  ARG242     -0.1245
    158  CA        42.3170    9.6890   14.5310 C.3   242  ARG242      0.1563
    159  C         42.7620    8.2030   14.5480 C.2   242  ARG242      0.2260
    160  O         42.0610    7.3210   15.0750 O.2   242  ARG242     -0.2867
    161  CB        41.0360    9.8470   15.3760 C.3   242  ARG242      0.0307
    162  CG        40.2570   11.1860   15.2490 C.3   242  ARG242      0.0489
    163  CD        41.0710   12.4180   15.6480 C.3   242  ARG242      0.2205
    164  NE        41.5830   12.3160   17.0170 N.pl3 242  ARG242     -0.0865
    165  CZ        42.8800   12.3720   17.3180 C.cat 242  ARG242      0.5346
    166  NH1       43.7920   12.5310   16.3530 N.pl3 242  ARG242      0.1354
    167  NH2       43.2810   12.2680   18.5840 N.pl3 242  ARG242      0.1354
    168  N         57.4750   22.8530   16.1940 N.3   323  PHE323     -0.1241
    169  CA        57.4660   24.0160   17.0500 C.3   323  PHE323      0.1605
    170  C         58.7270   24.7820   17.2890 C.2   323  PHE323      0.2264
    171  O         59.8240   24.2340   17.2360 O.2   323  PHE323     -0.2867
    172  CB        56.9710   23.5990   18.4520 C.3   323  PHE323      0.0534
    173  CG        55.7440   22.7440   18.4360 C.ar  323  PHE323     -0.0203
    174  CD1       54.5130   23.2770   18.0590 C.ar  323  PHE323     -0.0042
    175  CD2       55.8160   21.4070   18.8090 C.ar  323  PHE323     -0.0042
    176  CE1       53.3550   22.4820   18.0590 C.ar  323  PHE323     -0.0003
    177  CE2       54.6540   20.5980   18.8050 C.ar  323  PHE323     -0.0003
    178  CZ        53.4340   21.1480   18.4300 C.ar  323  PHE323     -0.0000
    179  N         54.5550   28.7940   22.7690 N.3   365  ARG365     -0.1245
    180  CA        54.8610   27.8610   21.6890 C.3   365  ARG365      0.1563
    181  C         54.3200   28.3990   20.3530 C.2   365  ARG365      0.2260
    182  O         53.1750   28.8860   20.2920 O.2   365  ARG365     -0.2867
    183  CB        54.1650   26.5050   21.9580 C.3   365  ARG365      0.0307
    184  CG        54.6780   25.3890   21.0600 C.3   365  ARG365      0.0489
    185  CD        53.8060   24.1380   21.2440 C.3   365  ARG365      0.2205
    186  NE        52.4800   24.3390   20.6320 N.pl3 365  ARG365     -0.0865
    187  CZ        51.4930   23.4440   20.6370 C.cat 365  ARG365      0.5346
    188  NH1       51.6410   22.2660   21.2400 N.pl3 365  ARG365      0.1354
    189  NH2       50.3690   23.7060   19.9780 N.pl3 365  ARG365      0.1354
@<TRIPOS>BOND
     1   144   143    2
     2   156   150    1
     3   156   155    1
     4   143   142    1
     5   150   151    1
     6    36    35    2
     7   138   137    2
     8   155   154    1
     9    35    34    1
    10   142   141    1
    11   142   145    1
    12   137   141   am
    13   137   136    1
    14   151   152    1
    15   151   154    1
    16    40    38    1
    17    37    34    1
    18    37    38    1
    19   152   153    2
    20   136   135    1
    21   136   139    1
    22    34    33    1
    23   145   146    1
    24    38    39    1
    25   157   158    1
    26   132   131    2
    27    33    31   am
    28   131   130    1
    29   139   140    1
    30   146   147    1
    31   158   159    1
    32   158   161    1
    33   147   148    1
    34   159   160    2
    35   120   119    2
    36    32    31    2
    37    31    30    1
    38    28    27    2
    39   162   161    1
    40   162   163    1
    41   119   118    1
    42   115   114    2
    43   130   129    1
    44   130   133    1
    45   134   133    1
    46   163   164    1
    47   118   121    1
    48   118   117    1
    49    30    29    1
    50   123   125   ar
    51   123   122   ar
    52   148   149    1
    53    20    19    2
    54   168   169    1
    55    27    29   am
    56    27    26    1
    57   166   165    1
    58   121   122    1
    59   125   127   ar
    60   114   117   am
    61   114   113    1
    62   122   124   ar
    63   164   165    2
    64   169   170    1
    65   169   172    1
    66    19    18    1
    67    26    25    1
    68   171   170    2
    69   165   167    1
    70    24    22    1
    71    12    11    2
    72   113   116    1
    73   113   112    1
    74   127   128    1
    75   127   126   ar
    76    18    21    1
    77    18    17    1
    78    41    42    1
    79   174   176   ar
    80   174   173   ar
    81   176   178   ar
    82    42    43    1
    83   124   126   ar
    84    21    22    1
    85   178   177   ar
    86   173   172    1
    87   173   175   ar
    88    11    17   am
    89    11    10    1
    90    22    23    1
    91   177   175   ar
    92    43    45   am
    93    43    44    2
    94    45    46    1
    95    10    13    1
    96    10     9    1
    97    50    49    1
    98   189   187    1
    99    13    14    1
   100    49    46    1
   101   182   181    2
   102   181   180    1
   103    16    14    1
   104    46    47    1
   105   186   187    2
   106   186   185    1
   107   187   188    1
   108   184   185    1
   109   184   183    1
   110    14    15    1
   111   110   109   ar
   112   103   101   am
   113     4     3    2
   114    51    47   am
   115    51    52    1
   116   106   107    2
   117   106   105    1
   118   180   183    1
   119   180   179    1
   120    47    48    2
   121   101   100    1
   122   101   102    2
   123   100    97    1
   124    94    92    1
   125    55    52    1
   126    55    56    1
   127    97    96    1
   128    97    98    1
   129    79    78    1
   130   109   111   ar
   131   109   108    1
   132     3     2    1
   133    52    53    1
   134   105   108    1
   135   105   104    1
   136     7     5    1
   137    76    78   ar
   138    76    74   ar
   139    78    77   ar
   140    87    86    1
   141    91    90    2
   142    53    54    2
   143     2     5    1
   144     2     1    1
   145    56    57    1
   146    90    89    1
   147    92    89    1
   148    92    93    1
   149    74    73   ar
   150    77    75   ar
   151    98    99    2
   152    89    88    1
   153     5     6    1
   154    59    57   am
   155    86    85    1
   156     6     8    1
   157    93    95    1
   158    73    75   ar
   159    73    72    1
   160    57    58    2
   161    66    65    1
   162    72    69    1
   163    60    61    1
   164    65    67    1
   165    65    64    1
   166    85    84    1
   167    69    68    1
   168    69    70    1
   169    64    61    1
   170    80    70   am
   171    80    81    1
   172    61    62    1
   173    70    71    2
   174    84    81    1
   175    82    81    1
   176    82    83    2
   177    62    63    2
