@<TRIPOS>MOLECULE
tmp/2z1zA00.pdb
 96 91 0 0 0
SMALL
GASTEIGER

@<TRIPOS>ATOM
      1  N         29.9210  -22.3700   22.5940 N.3    19  TYR19      -0.1241
      2  CA        28.6400  -22.6550   23.3470 C.3    19  TYR19       0.1605
      3  C         28.5620  -22.0320   24.7710 C.2    19  TYR19       0.2264
      4  O         29.5120  -22.1240   25.5760 O.2    19  TYR19      -0.2867
      5  CB        28.2790  -24.1610   23.3670 C.3    19  TYR19       0.0534
      6  CG        26.8340  -24.4850   23.7620 C.ar   19  TYR19      -0.0201
      7  CD1       25.7860  -23.7910   23.1960 C.ar   19  TYR19      -0.0009
      8  CD2       26.5080  -25.5050   24.7110 C.ar   19  TYR19      -0.0009
      9  CE1       24.4720  -24.0740   23.5270 C.ar   19  TYR19       0.0417
     10  CE2       25.1570  -25.7810   25.0620 C.ar   19  TYR19       0.0417
     11  CZ        24.1490  -25.0400   24.4480 C.ar   19  TYR19       0.1957
     12  OH        22.7810  -25.2130   24.6650 O.3    19  TYR19      -0.2866
     13  N         27.4420  -22.5690   27.8240 N.3    21  PHE21      -0.1241
     14  CA        27.7560  -23.3050   29.0550 C.3    21  PHE21       0.1605
     15  C         29.2590  -23.7040   29.2260 C.2    21  PHE21       0.2264
     16  O         29.8900  -23.3200   30.2480 O.2    21  PHE21      -0.2867
     17  CB        26.7080  -24.4250   29.3780 C.3    21  PHE21       0.0534
     18  CG        25.3010  -23.8960   29.3970 C.ar   21  PHE21      -0.0203
     19  CD1       24.8890  -22.9720   30.4020 C.ar   21  PHE21      -0.0042
     20  CD2       24.4030  -24.1840   28.3580 C.ar   21  PHE21      -0.0042
     21  CE1       23.6050  -22.4000   30.3820 C.ar   21  PHE21      -0.0003
     22  CE2       23.1050  -23.5770   28.3630 C.ar   21  PHE21      -0.0003
     23  CZ        22.7200  -22.7100   29.3860 C.ar   21  PHE21      -0.0000
     24  N         24.7610  -23.4030   35.6380 N.3    45  ILE45      -0.1231
     25  CA        24.1620  -24.3760   34.8160 C.3    45  ILE45       0.1692
     26  C         23.0330  -25.0270   35.6390 C.2    45  ILE45       0.2592
     27  O         23.1990  -25.3080   36.8580 O.2    45  ILE45      -0.2718
     28  CB        25.2410  -25.2990   34.1850 C.3    45  ILE45       0.0266
     29  CG1       24.7260  -26.7040   33.9070 C.3    45  ILE45       0.0019
     30  CG2       26.5640  -25.2570   34.9790 C.3    45  ILE45       0.0020
     31  CD1       24.8010  -27.0040   32.4110 C.3    45  ILE45       0.0001
     32  N         21.8650  -25.1850   34.9880 N.am   46  GLY46      -0.1957
     33  CA        20.7060  -25.8870   35.5570 C.3    46  GLY46       0.1869
     34  C         21.0010  -27.3690   35.7510 C.2    46  GLY46       0.2309
     35  O         20.3250  -28.2490   35.1600 O.2    46  GLY46      -0.2863
     36  N         18.6910  -32.2810   24.1890 N.3   111  LYS111     -0.1245
     37  CA        19.7340  -31.6130   23.3720 C.3   111  LYS111      0.1561
     38  C         20.0610  -32.4740   22.1600 C.2   111  LYS111      0.2260
     39  O         20.3400  -31.9750   21.0860 O.2   111  LYS111     -0.2867
     40  CB        20.9960  -31.3930   24.2250 C.3   111  LYS111      0.0271
     41  CG        21.9590  -30.3740   23.7740 C.3   111  LYS111      0.0035
     42  CD        22.9290  -30.1310   24.9300 C.3   111  LYS111      0.0206
     43  CE        24.3140  -29.8740   24.4990 C.3   111  LYS111      0.1093
     44  NZ        25.2520  -29.4460   25.6210 N.3   111  LYS111     -0.1314
     45  N         16.8490  -20.4950   25.0160 N.3   134  TYR134     -0.1241
     46  CA        17.7650  -21.5920   25.1170 C.3   134  TYR134      0.1605
     47  C         18.6170  -21.6610   23.8880 C.2   134  TYR134      0.2264
     48  O         18.0690  -21.9180   22.8030 O.2   134  TYR134     -0.2867
     49  CB        16.9880  -22.8940   25.2870 C.3   134  TYR134      0.0534
     50  CG        17.8110  -24.0570   25.6480 C.ar  134  TYR134     -0.0201
     51  CD1       18.4130  -24.1380   26.8890 C.ar  134  TYR134     -0.0009
     52  CD2       18.0120  -25.0950   24.7260 C.ar  134  TYR134     -0.0009
     53  CE1       19.2320  -25.2310   27.2340 C.ar  134  TYR134      0.0417
     54  CE2       18.7940  -26.2100   25.0400 C.ar  134  TYR134      0.0417
     55  CZ        19.4110  -26.2800   26.3210 C.ar  134  TYR134      0.1957
     56  OH        20.1940  -27.4220   26.6680 O.3   134  TYR134     -0.2866
     57  N         13.0890  -21.4870   29.3150 N.3   191  ASN191     -0.1240
     58  CA        14.4540  -21.2790   29.7970 C.3   191  ASN191      0.1653
     59  C         14.9960  -20.1340   28.9190 C.2   191  ASN191      0.2266
     60  O         15.0630  -20.3000   27.6810 O.2   191  ASN191     -0.2867
     61  CB        15.2120  -22.6200   29.5710 C.3   191  ASN191      0.1155
     62  CG        16.6150  -22.6170   30.1540 C.2   191  ASN191      0.2627
     63  OD1       17.1100  -21.5840   30.6120 O.2   191  ASN191     -0.2716
     64  ND2       17.2650  -23.7630   30.1210 N.am  191  ASN191     -0.0877
     65  N         10.5430  -28.4110   31.0810 N.3   222  TYR222     -0.1241
     66  CA        10.1890  -27.9480   32.4410 C.3   222  TYR222      0.1605
     67  C          8.7630  -28.1160   32.9280 C.2   222  TYR222      0.2264
     68  O          8.4510  -27.5860   34.0080 O.2   222  TYR222     -0.2867
     69  CB        10.5710  -26.4950   32.5950 C.3   222  TYR222      0.0534
     70  CG        12.0240  -26.4470   32.6790 C.ar  222  TYR222     -0.0201
     71  CD1       12.6340  -26.8950   33.8180 C.ar  222  TYR222     -0.0009
     72  CD2       12.8250  -26.0540   31.5770 C.ar  222  TYR222     -0.0009
     73  CE1       13.9460  -26.9490   33.9140 C.ar  222  TYR222      0.0417
     74  CE2       14.1940  -26.0930   31.6870 C.ar  222  TYR222      0.0417
     75  CZ        14.7260  -26.5230   32.8640 C.ar  222  TYR222      0.1957
     76  OH        16.0800  -26.5570   33.1080 O.3   222  TYR222     -0.2866
     77  N         15.2410  -33.0620   34.2120 N.3   252  LYS252     -0.1245
     78  CA        14.8690  -32.0610   35.2140 C.3   252  LYS252      0.1561
     79  C         13.9830  -32.5540   36.3440 C.2   252  LYS252      0.2260
     80  O         14.0920  -32.0510   37.5030 O.2   252  LYS252     -0.2867
     81  CB        14.3260  -30.8190   34.5760 C.3   252  LYS252      0.0271
     82  CG        15.3980  -30.1420   33.6700 C.3   252  LYS252      0.0035
     83  CD        16.6360  -29.8780   34.4620 C.3   252  LYS252      0.0206
     84  CE        17.8660  -29.9130   33.6090 C.3   252  LYS252      0.1093
     85  NZ        18.1470  -28.5280   33.2490 N.3   252  LYS252     -0.1314
     86  N         20.0530  -15.1200   34.7370 N.3   386  ARG386     -0.1245
     87  CA        19.3730  -16.2770   35.1760 C.3   386  ARG386      0.1563
     88  C         20.1100  -16.8210   36.3780 C.2   386  ARG386      0.2260
     89  O         21.3390  -17.0480   36.3190 O.2   386  ARG386     -0.2867
     90  CB        19.3540  -17.3210   34.0740 C.3   386  ARG386      0.0307
     91  CG        18.1910  -18.3750   34.3020 C.3   386  ARG386      0.0489
     92  CD        18.2810  -19.4730   33.3230 C.3   386  ARG386      0.2205
     93  NE        19.3870  -20.3070   33.6830 N.pl3 386  ARG386     -0.0865
     94  CZ        19.8070  -21.3820   33.0130 C.cat 386  ARG386      0.5346
     95  NH1       19.2570  -21.8050   31.8670 N.pl3 386  ARG386      0.1354
     96  NH2       20.7920  -22.0740   33.5310 N.pl3 386  ARG386      0.1354
@<TRIPOS>BOND
     1    39    38    2
     2    38    37    1
     3     1     2    1
     4    48    47    2
     5     7     9   ar
     6     7     6   ar
     7     2     5    1
     8     2     3    1
     9     5     6    1
    10    37    36    1
    11    37    40    1
    12     9    11   ar
    13     6     8   ar
    14    41    40    1
    15    41    42    1
    16    47    46    1
    17    11    12    1
    18    11    10   ar
    19    43    42    1
    20    43    44    1
    21     8    10   ar
    22    52    54   ar
    23    52    50   ar
    24     3     4    2
    25    45    46    1
    26    54    55   ar
    27    46    49    1
    28    49    50    1
    29    50    51   ar
    30    55    56    1
    31    55    53   ar
    32    51    53   ar
    33    60    59    2
    34    13    14    1
    35    20    22   ar
    36    20    18   ar
    37    22    23   ar
    38    59    58    1
    39    14    15    1
    40    14    17    1
    41    15    16    2
    42    57    58    1
    43    17    18    1
    44    23    21   ar
    45    18    19   ar
    46    61    58    1
    47    61    62    1
    48    64    62   am
    49    62    63    2
    50    21    19   ar
    51    65    66    1
    52    72    74   ar
    53    72    70   ar
    54    74    75   ar
    55    95    94    1
    56    31    29    1
    57    66    69    1
    58    66    67    1
    59    69    70    1
    60    70    71   ar
    61    75    76    1
    62    75    73   ar
    63    67    68    2
    64    94    96    1
    65    94    93    2
    66    85    84    1
    67    92    93    1
    68    92    91    1
    69    84    83    1
    70    82    83    1
    71    82    81    1
    72    71    73   ar
    73    29    28    1
    74    90    91    1
    75    90    87    1
    76    28    25    1
    77    28    30    1
    78    77    78    1
    79    81    78    1
    80    86    87    1
    81    25    24    1
    82    25    26    1
    83    32    33    1
    84    32    26   am
    85    35    34    2
    86    87    88    1
    87    78    79    1
    88    33    34    1
    89    26    27    2
    90    89    88    2
    91    79    80    2
