@<TRIPOS>MOLECULE
tmp/2z1zB00.pdb
 150 140 0 0 0
SMALL
GASTEIGER

@<TRIPOS>ATOM
      1  N         24.8850  -57.9080   13.0690 N.3    46  GLY46      -0.1225
      2  CA        26.0060  -58.0870   13.9960 C.3    46  GLY46       0.1811
      3  C         25.5850  -57.5510   15.3740 C.2    46  GLY46       0.2280
      4  O         25.6690  -56.3230   15.6260 O.2    46  GLY46      -0.2866
      5  N         28.2350  -44.0600   21.4160 N.3   109  GLY109     -0.1210
      6  CA        28.3800  -45.1670   20.4460 C.3   109  GLY109      0.1956
      7  C         28.6900  -44.8120   18.9960 C.2   109  GLY109      0.2612
      8  O         28.4670  -43.6800   18.5880 O.2   109  GLY109     -0.2717
      9  N         29.2220  -45.7650   18.2290 N.am  110  ALA110     -0.1965
     10  CA        29.8050  -45.4320   16.9230 C.3   110  ALA110      0.1728
     11  C         28.8130  -44.9150   15.8670 C.2   110  ALA110      0.2616
     12  O         29.2320  -44.0790   15.0130 O.2   110  ALA110     -0.2715
     13  CB        30.7690  -46.5050   16.3600 C.3   110  ALA110      0.0334
     14  N         27.5250  -45.2890   15.9730 N.am  111  LYS111     -0.1963
     15  CA        26.5670  -44.7460   15.0060 C.3   111  LYS111      0.1728
     16  C         26.3130  -43.2350   15.2480 C.2   111  LYS111      0.2616
     17  O         26.2740  -42.4080   14.3180 O.2   111  LYS111     -0.2715
     18  CB        25.2690  -45.5470   14.9940 C.3   111  LYS111      0.0311
     19  CG        24.4680  -45.3750   13.6820 C.3   111  LYS111      0.0038
     20  CD        23.7760  -46.7010   13.2280 C.3   111  LYS111      0.0206
     21  CE        22.4490  -46.8210   13.9830 C.3   111  LYS111      0.1093
     22  NZ        21.4750  -47.9150   13.6180 N.3   111  LYS111     -0.1314
     23  N         26.1620  -42.8790   16.5180 N.am  112  CYS112     -0.1968
     24  CA        26.1050  -41.4820   16.9150 C.3   112  CYS112      0.1712
     25  C         27.4180  -40.6980   16.6760 C.2   112  CYS112      0.2296
     26  O         27.3590  -39.5210   16.4610 O.2   112  CYS112     -0.2864
     27  CB        25.6380  -41.3840   18.3650 C.3   112  CYS112      0.0983
     28  SG        24.2460  -42.5390   18.6900 S.3   112  CYS112     -0.0798
     29  N         29.4030  -41.1890   13.9140 N.3   114  ILE114     -0.1245
     30  CA        29.3370  -40.8840   12.5240 C.3   114  ILE114      0.1561
     31  C         28.3430  -39.7410   12.2680 C.2   114  ILE114      0.2260
     32  O         28.6430  -38.8710   11.4760 O.2   114  ILE114     -0.2867
     33  CB        29.0380  -42.1650   11.6480 C.3   114  ILE114      0.0252
     34  CG1       30.2580  -43.1440   11.6720 C.3   114  ILE114      0.0019
     35  CG2       28.6710  -41.7840   10.1790 C.3   114  ILE114      0.0019
     36  CD1       29.8370  -44.6680   11.8010 C.3   114  ILE114      0.0001
     37  N         29.5780  -50.6160    5.4930 N.3   134  TYR134     -0.1241
     38  CA        28.5580  -50.3860    6.4750 C.3   134  TYR134      0.1605
     39  C         27.7270  -49.1690    5.9820 C.2   134  TYR134      0.2264
     40  O         28.2770  -48.1330    5.5730 O.2   134  TYR134     -0.2867
     41  CB        29.3030  -50.1670    7.7570 C.3   134  TYR134      0.0534
     42  CG        28.5790  -49.9450    9.0450 C.ar  134  TYR134     -0.0201
     43  CD1       27.8070  -50.9450    9.6320 C.ar  134  TYR134     -0.0009
     44  CD2       28.7570  -48.7320    9.7490 C.ar  134  TYR134     -0.0009
     45  CE1       27.1530  -50.7330   10.8740 C.ar  134  TYR134      0.0417
     46  CE2       28.1400  -48.4960   11.0030 C.ar  134  TYR134      0.0417
     47  CZ        27.3420  -49.5090   11.5670 C.ar  134  TYR134      0.1957
     48  OH        26.7500  -49.2850   12.8160 O.3   134  TYR134     -0.2866
     49  N         27.6060  -44.8900    6.7390 N.3   137  TYR137     -0.1241
     50  CA        28.4400  -43.8360    6.1880 C.3   137  TYR137      0.1605
     51  C         27.7690  -43.2840    4.9930 C.2   137  TYR137      0.2264
     52  O         27.7720  -42.0960    4.8220 O.2   137  TYR137     -0.2867
     53  CB        29.8160  -44.3060    5.7390 C.3   137  TYR137      0.0534
     54  CG        30.5590  -45.1380    6.7100 C.ar  137  TYR137     -0.0201
     55  CD1       30.7980  -44.7110    8.0130 C.ar  137  TYR137     -0.0009
     56  CD2       31.1020  -46.3330    6.2950 C.ar  137  TYR137     -0.0009
     57  CE1       31.5390  -45.5210    8.8880 C.ar  137  TYR137      0.0417
     58  CE2       31.8520  -47.1220    7.1290 C.ar  137  TYR137      0.0417
     59  CZ        32.0550  -46.7300    8.4140 C.ar  137  TYR137      0.1957
     60  OH        32.7740  -47.5810    9.1950 O.3   137  TYR137     -0.2866
     61  N         37.1600  -48.7630    7.2490 N.3   187  CYS187     -0.1235
     62  CA        36.8980  -49.6400    8.3350 C.3   187  CYS187      0.1677
     63  C         37.8080  -50.8800    8.2160 C.2   187  CYS187      0.2270
     64  O         37.6800  -51.6660    7.2480 O.2   187  CYS187     -0.2867
     65  CB        35.4190  -50.0040    8.2250 C.3   187  CYS187      0.0956
     66  SG        34.6330  -51.0650    9.3980 S.3   187  CYS187     -0.0801
     67  N         33.7530  -54.5110    7.9400 N.3   191  ASN191     -0.1240
     68  CA        32.3540  -54.9760    7.9290 C.3   191  ASN191      0.1653
     69  C         31.7220  -54.5140    6.5940 C.2   191  ASN191      0.2266
     70  O         31.6350  -53.3050    6.2920 O.2   191  ASN191     -0.2867
     71  CB        31.6740  -54.3340    9.1380 C.3   191  ASN191      0.1155
     72  CG        30.2460  -54.7040    9.2660 C.2   191  ASN191      0.2627
     73  OD1       29.7410  -55.6740    8.6510 O.2   191  ASN191     -0.2716
     74  ND2       29.5510  -53.9380   10.0900 N.am  191  ASN191     -0.0877
     75  N         37.7620  -46.6210   11.1720 N.3   219  ASP219     -0.1239
     76  CA        36.7830  -47.2920   12.0300 C.3   219  ASP219      0.1674
     77  C         37.4010  -48.5870   12.5760 C.2   219  ASP219      0.2266
     78  O         37.5320  -49.6240   11.8610 O.2   219  ASP219     -0.2867
     79  CB        35.4260  -47.4940   11.2770 C.3   219  ASP219      0.1410
     80  CG        34.2460  -47.8840   12.1950 C.2   219  ASP219      0.3668
     81  OD1       34.3680  -48.5450   13.2550 O.co2 219  ASP219     -0.2456
     82  OD2       33.1090  -47.5520   11.8140 O.co2 219  ASP219     -0.2456
     83  N         36.2490  -50.3490   15.1220 N.3   221  ALA221     -0.1231
     84  CA        35.2970  -51.0720   15.9080 C.3   221  ALA221      0.1694
     85  C         35.6620  -52.5700   16.1180 C.2   221  ALA221      0.2592
     86  O         35.3420  -53.1060   17.1620 O.2   221  ALA221     -0.2718
     87  CB        33.8960  -50.9610   15.2470 C.3   221  ALA221      0.0304
     88  N         36.2930  -53.2530   15.1340 N.am  222  TYR222     -0.1976
     89  CA        36.5960  -54.7100   15.2390 C.3   222  TYR222      0.1639
     90  C         38.0440  -55.0800   15.5570 C.2   222  TYR222      0.2290
     91  O         38.4310  -56.2690   15.4110 O.2   222  TYR222     -0.2864
     92  CB        36.1840  -55.4410   13.9520 C.3   222  TYR222      0.0560
     93  CG        34.7240  -55.3790   13.8800 C.ar  222  TYR222     -0.0198
     94  CD1       33.9590  -56.0740   14.8290 C.ar  222  TYR222     -0.0009
     95  CD2       34.0720  -54.5200   12.9450 C.ar  222  TYR222     -0.0009
     96  CE1       32.6280  -56.0270   14.7880 C.ar  222  TYR222      0.0417
     97  CE2       32.7110  -54.4230   12.9300 C.ar  222  TYR222      0.0417
     98  CZ        31.9730  -55.1970   13.8570 C.ar  222  TYR222      0.1957
     99  OH        30.5630  -55.1610   13.8970 O.3   222  TYR222     -0.2866
    100  N         34.2760  -48.2210   19.2990 N.3   249  SER249     -0.1217
    101  CA        33.1260  -48.6040   20.1120 C.3   249  SER249      0.1889
    102  C         33.4570  -49.7090   21.1140 C.2   249  SER249      0.2288
    103  O         34.1170  -50.6880   20.7710 O.2   249  SER249     -0.2866
    104  CB        32.0870  -49.1450   19.1810 C.3   249  SER249      0.2089
    105  OG        30.8500  -49.2710   19.8500 O.3   249  SER249     -0.2183
    106  N         31.0210  -51.5920   21.9320 N.3   251  SER251     -0.1202
    107  CA        29.9040  -52.4830   21.7720 C.3   251  SER251      0.2020
    108  C         30.3420  -53.9080   21.4750 C.2   251  SER251      0.2618
    109  O         29.6680  -54.8540   21.8710 O.2   251  SER251     -0.2717
    110  CB        28.9420  -51.9910   20.6890 C.3   251  SER251      0.2103
    111  OG        28.0550  -51.0090   21.2000 O.3   251  SER251     -0.2182
    112  N         31.4370  -54.0930   20.7590 N.am  252  LYS252     -0.1979
    113  CA        31.7140  -55.4710   20.2420 C.3   252  LYS252      0.1596
    114  C         32.6950  -56.2890   21.1050 C.2   252  LYS252      0.2287
    115  O         32.8770  -57.4760   20.8840 O.2   252  LYS252     -0.2864
    116  CB        32.0790  -55.4860   18.7370 C.3   252  LYS252      0.0298
    117  CG        31.0170  -54.7750   17.7830 C.3   252  LYS252      0.0038
    118  CD        29.5940  -55.4330   17.6800 C.3   252  LYS252      0.0206
    119  CE        28.4920  -54.3670   17.4160 C.3   252  LYS252      0.1093
    120  NZ        28.9620  -53.0750   16.6560 N.3   252  LYS252     -0.1314
    121  N         26.2300  -53.1810   23.2790 N.3   257  THR257     -0.1218
    122  CA        25.3560  -52.8010   22.1800 C.3   257  THR257      0.1862
    123  C         24.0730  -52.0840   22.6530 C.2   257  THR257      0.2287
    124  O         23.6210  -51.0740   22.0350 O.2   257  THR257     -0.2866
    125  CB        25.0460  -53.9980   21.3110 C.3   257  THR257      0.1770
    126  OG1       24.7720  -55.1420   22.1500 O.3   257  THR257     -0.2211
    127  CG2       26.2400  -54.2710   20.2580 C.3   257  THR257      0.0375
    128  N         25.7740  -48.7740   25.3090 N.3   260  ARG260     -0.1245
    129  CA        26.0620  -47.5500   24.5690 C.3   260  ARG260      0.1563
    130  C         27.2720  -46.7310   25.0980 C.2   260  ARG260      0.2260
    131  O         27.1090  -45.7400   25.8660 O.2   260  ARG260     -0.2867
    132  CB        24.7970  -46.5950   24.5180 C.3   260  ARG260      0.0307
    133  CG        23.3860  -47.2200   24.4770 C.3   260  ARG260      0.0489
    134  CD        22.8390  -47.4500   23.0830 C.3   260  ARG260      0.2205
    135  NE        23.5830  -48.4560   22.3680 N.pl3 260  ARG260     -0.0865
    136  CZ        24.4670  -48.1880   21.4020 C.cat 260  ARG260      0.5346
    137  NH1       24.6660  -46.9190   21.0080 N.pl3 260  ARG260      0.1354
    138  NH2       25.1450  -49.1950   20.8290 N.pl3 260  ARG260      0.1354
    139  N         32.9100  -62.0040   11.4250 N.3   346  TYR346     -0.1241
    140  CA        32.0740  -62.0570   10.2390 C.3   346  TYR346      0.1605
    141  C         32.7080  -63.0060    9.2390 C.2   346  TYR346      0.2264
    142  O         33.8990  -62.8250    8.9440 O.2   346  TYR346     -0.2867
    143  CB        32.1000  -60.6640    9.6190 C.3   346  TYR346      0.0534
    144  CG        31.3310  -59.7520   10.4560 C.ar  346  TYR346     -0.0201
    145  CD1       30.0140  -60.0940   10.8250 C.ar  346  TYR346     -0.0009
    146  CD2       31.8820  -58.5740   10.9450 C.ar  346  TYR346     -0.0009
    147  CE1       29.2300  -59.2460   11.6200 C.ar  346  TYR346      0.0417
    148  CE2       31.1250  -57.7600   11.7510 C.ar  346  TYR346      0.0417
    149  CZ        29.7820  -58.0990   12.0840 C.ar  346  TYR346      0.1957
    150  OH        29.0190  -57.2870   12.8670 O.3   346  TYR346     -0.2866
@<TRIPOS>BOND
     1    52    51    2
     2    51    50    1
     3    37    38    1
     4    40    39    2
     5    53    50    1
     6    53    54    1
     7    39    38    1
     8    50    49    1
     9    70    69    2
    10    56    54   ar
    11    56    58   ar
    12    38    41    1
    13    69    68    1
    14    54    55   ar
    15    58    59   ar
    16    64    63    2
    17    61    62    1
    18    41    42    1
    19    68    67    1
    20    68    71    1
    21    55    57   ar
    22    63    62    1
    23    65    62    1
    24    65    66    1
    25    59    57   ar
    26    59    60    1
    27    73    72    2
    28   142   141    2
    29    42    43   ar
    30    42    44   ar
    31    71    72    1
    32   141   140    1
    33    72    74   am
    34   143   140    1
    35   143   144    1
    36    43    45   ar
    37    44    46   ar
    38    35    33    1
    39   140   139    1
    40   144   145   ar
    41   144   146   ar
    42   145   147   ar
    43    45    47   ar
    44   146   148   ar
    45    46    47   ar
    46    75    76    1
    47    79    76    1
    48    79    80    1
    49    32    31    2
    50    47    48    1
    51   147   149   ar
    52    33    34    1
    53    33    30    1
    54    34    36    1
    55   148   149   ar
    56    82    80   ar
    57    78    77    2
    58    76    77    1
    59   149   150    1
    60    80    81   ar
    61    31    30    1
    62    30    29    1
    63    97    95   ar
    64    97    98   ar
    65    95    93   ar
    66     1     2    1
    67    20    19    1
    68    20    21    1
    69    22    21    1
    70    19    18    1
    71    98    99    1
    72    98    96   ar
    73    93    92    1
    74    93    94   ar
    75    92    89    1
    76     2     3    1
    77    17    16    2
    78    96    94   ar
    79    18    15    1
    80    15    16    1
    81    15    14    1
    82    12    11    2
    83    83    84    1
    84    88    89    1
    85    88    85   am
    86    89    90    1
    87    87    84    1
    88    16    23   am
    89     3     4    2
    90    91    90    2
    91    11    14   am
    92    11    10    1
    93    84    85    1
    94    85    86    2
    95    13    10    1
    96    26    25    2
    97    23    24    1
    98   120   119    1
    99    25    24    1
   100    24    27    1
   101    10     9    1
   102   119   118    1
   103   118   117    1
   104   117   116    1
   105     9     7   am
   106    27    28    1
   107     8     7    2
   108   116   113    1
   109     7     6    1
   110   104   105    1
   111   104   101    1
   112   100   101    1
   113   101   102    1
   114   113   112    1
   115   113   114    1
   116   127   125    1
   117     6     5    1
   118   110   111    1
   119   110   107    1
   120   112   108   am
   121   103   102    2
   122   138   136    1
   123   115   114    2
   124   137   136    1
   125   125   126    1
   126   125   122    1
   127   136   135    2
   128   108   107    1
   129   108   109    2
   130   107   106    1
   131   124   123    2
   132   122   123    1
   133   122   121    1
   134   135   134    1
   135   134   133    1
   136   133   132    1
   137   132   129    1
   138   129   130    1
   139   129   128    1
   140   130   131    2
