@<TRIPOS>MOLECULE
tmp/2z25B00.pdb
 131 124 0 0 0
SMALL
GASTEIGER

@<TRIPOS>ATOM
      1  N          6.6090   13.0790   51.5520 N.3    13  HIS13      -0.1241
      2  CA         6.5050   13.5260   52.9460 C.3    13  HIS13       0.1621
      3  C          5.9800   14.9710   53.0340 C.2    13  HIS13       0.2264
      4  O          6.7340   15.9300   52.8560 O.2    13  HIS13      -0.2867
      5  CB         7.8600   13.4370   53.6270 C.3    13  HIS13       0.0745
      6  CG         7.8160   13.6500   55.1120 C.ar   13  HIS13       0.0817
      7  ND1        8.5310   12.8600   55.9860 N.ar   13  HIS13      -0.2268
      8  CD2        7.1720   14.5640   55.8720 C.ar   13  HIS13       0.1154
      9  CE1        8.3340   13.2810   57.2200 C.ar   13  HIS13       0.1986
     10  NE2        7.5150   14.3170   57.1790 N.ar   13  HIS13      -0.2212
     11  N          3.0890   17.8640   55.0350 N.3    15  HIS15      -0.1241
     12  CA         2.1030   18.2850   56.0260 C.3    15  HIS15       0.1621
     13  C          1.1880   19.2990   55.3920 C.2    15  HIS15       0.2264
     14  O          1.6450   20.3430   54.9320 O.2    15  HIS15      -0.2867
     15  CB         2.7800   18.8730   57.2640 C.3    15  HIS15       0.0745
     16  CG         3.6100   17.8760   57.9920 C.ar   15  HIS15       0.0817
     17  ND1        3.1110   17.0810   59.0020 N.ar   15  HIS15      -0.2268
     18  CD2        4.9010   17.5220   57.8300 C.ar   15  HIS15       0.1154
     19  CE1        4.0600   16.2570   59.4050 C.ar   15  HIS15       0.1986
     20  NE2        5.1610   16.5180   58.7240 N.ar   15  HIS15      -0.2212
     21  N         -1.8480   20.2140   57.1610 N.3    17  ARG17      -0.1245
     22  CA        -2.6110   20.8060   58.2620 C.3    17  ARG17       0.1563
     23  C         -4.1040   20.6280   58.0110 C.2    17  ARG17       0.2260
     24  O         -4.5080   19.6260   57.4310 O.2    17  ARG17      -0.2867
     25  CB        -2.2210   22.2870   58.4750 C.3    17  ARG17       0.0307
     26  CG        -0.7270   22.5320   58.5050 C.3    17  ARG17       0.0489
     27  CD        -0.0590   21.8010   59.6850 C.3    17  ARG17       0.2205
     28  NE         1.3220   22.2370   59.8630 N.pl3  17  ARG17      -0.0865
     29  CZ         2.2980   21.5010   60.3900 C.cat  17  ARG17       0.5346
     30  NH1        2.0990   20.2590   60.7920 N.pl3  17  ARG17       0.1354
     31  NH2        3.5030   22.0120   60.4790 N.pl3  17  ARG17       0.1354
     32  N         -0.1800   13.8650   61.6400 N.3    41  ASN41      -0.1240
     33  CA        -0.0360   14.5630   62.9200 C.3    41  ASN41       0.1653
     34  C         -0.9090   15.8250   63.0650 C.2    41  ASN41       0.2266
     35  O         -0.4250   16.9190   63.4160 O.2    41  ASN41      -0.2867
     36  CB         1.4390   14.8680   63.1930 C.3    41  ASN41       0.1155
     37  CG         2.0300   15.9050   62.2360 C.2    41  ASN41       0.2627
     38  OD1        1.6340   15.9890   61.0670 O.2    41  ASN41      -0.2716
     39  ND2        2.9910   16.6860   62.7280 N.am   41  ASN41      -0.0877
     40  N          5.8760    8.2480   65.0640 N.3   100  TYR100     -0.1241
     41  CA         6.3910    9.3950   65.8000 C.3   100  TYR100      0.1605
     42  C          6.7690    8.9270   67.2030 C.2   100  TYR100      0.2264
     43  O          5.9040    8.5300   67.9800 O.2   100  TYR100     -0.2867
     44  CB         5.3460   10.5180   65.9460 C.3   100  TYR100      0.0534
     45  CG         4.9670   11.2330   64.6530 C.ar  100  TYR100     -0.0201
     46  CD1        3.7380   10.9910   64.0310 C.ar  100  TYR100     -0.0009
     47  CD2        5.8010   12.1960   64.0990 C.ar  100  TYR100     -0.0009
     48  CE1        3.3810   11.6700   62.8630 C.ar  100  TYR100      0.0417
     49  CE2        5.4640   12.8600   62.9380 C.ar  100  TYR100      0.0417
     50  CZ         4.2520   12.6060   62.3250 C.ar  100  TYR100      0.1957
     51  OH         3.9400   13.2850   61.1730 O.3   100  TYR100     -0.2866
     52  N          8.5190   15.4370   68.3330 N.3   105  THR105     -0.1203
     53  CA         8.2940   16.4270   67.2800 C.3   105  THR105      0.1994
     54  C          6.9040   17.0630   67.3640 C.2   105  THR105      0.2617
     55  O          6.2650   17.0400   68.4190 O.2   105  THR105     -0.2717
     56  CB         8.6190   15.8030   65.8700 C.3   105  THR105      0.1784
     57  OG1        8.5220   16.8060   64.8460 O.3   105  THR105     -0.2211
     58  CG2        7.7020   14.6510   65.5340 C.3   105  THR105      0.0376
     59  N          6.4620   17.6690   66.2660 N.am  106  VAL106     -0.1979
     60  CA         5.2160   18.4280   66.2530 C.3   106  VAL106      0.1595
     61  C          4.0220   17.4730   66.3490 C.2   106  VAL106      0.2287
     62  O          3.9580   16.4790   65.6100 O.2   106  VAL106     -0.2864
     63  CB         5.1210   19.3170   64.9770 C.3   106  VAL106      0.0276
     64  CG1        3.7050   19.9170   64.8220 C.3   106  VAL106      0.0022
     65  CG2        6.1950   20.4090   65.0210 C.3   106  VAL106      0.0022
     66  N          9.9140    8.7580   61.8620 N.3   135  HIS135     -0.1241
     67  CA        10.6710    9.9070   62.3360 C.3   135  HIS135      0.1621
     68  C         11.6990    9.3500   63.3010 C.2   135  HIS135      0.2264
     69  O         11.3930    9.0760   64.4720 O.2   135  HIS135     -0.2867
     70  CB         9.7750   10.9240   63.0270 C.3   135  HIS135      0.0745
     71  CG        10.5250   12.1060   63.5550 C.ar  135  HIS135      0.0817
     72  ND1       10.3290   13.3820   63.0770 N.ar  135  HIS135     -0.2268
     73  CD2       11.4730   12.2050   64.5180 C.ar  135  HIS135      0.1154
     74  CE1       11.1400   14.2140   63.7080 C.ar  135  HIS135      0.1986
     75  NE2       11.8390   13.5280   64.5940 N.ar  135  HIS135     -0.2212
     76  N         13.0540   12.1690   56.2960 N.3   173  HIS173     -0.1241
     77  CA        13.8870   13.3870   56.4510 C.3   173  HIS173      0.1621
     78  C         15.2000   13.1570   57.1900 C.2   173  HIS173      0.2264
     79  O         15.4010   13.6530   58.3130 O.2   173  HIS173     -0.2867
     80  CB        13.0970   14.5160   57.1060 C.3   173  HIS173      0.0745
     81  CG        12.3540   14.1440   58.3590 C.ar  173  HIS173      0.0817
     82  ND1       12.8520   13.2860   59.3190 N.ar  173  HIS173     -0.2268
     83  CD2       11.1750   14.6010   58.8420 C.ar  173  HIS173      0.1154
     84  CE1       11.9840   13.1910   60.3140 C.ar  173  HIS173      0.1986
     85  NE2       10.9700   14.0000   60.0610 N.ar  173  HIS173     -0.2212
     86  N         13.6370   23.3800   62.2490 N.3   217  CYS217     -0.1221
     87  CA        12.8040   22.2390   61.9470 C.3   217  CYS217      0.1808
     88  C         13.4480   21.0100   62.5870 C.2   217  CYS217      0.2601
     89  O         14.5730   21.0640   63.1060 O.2   217  CYS217     -0.2717
     90  CB        12.6830   22.0600   60.4320 C.3   217  CYS217      0.0970
     91  SG        14.2510   21.7520   59.5890 S.3   217  CYS217     -0.0800
     92  N         12.6840   19.9260   62.6320 N.am  218  LEU218     -0.1979
     93  CA        13.1910   18.6510   63.1150 C.3   218  LEU218      0.1596
     94  C         13.2110   17.6330   61.9730 C.2   218  LEU218      0.2287
     95  O         12.4290   17.7390   61.0390 O.2   218  LEU218     -0.2864
     96  CB        12.3410   18.1520   64.2830 C.3   218  LEU218      0.0297
     97  CG        12.1400   19.1380   65.4440 C.3   218  LEU218      0.0022
     98  CD1       11.0700   18.6100   66.3910 C.3   218  LEU218      0.0001
     99  CD2       13.4410   19.4390   66.2050 C.3   218  LEU218      0.0001
    100  N          8.8810   17.4920   53.5050 N.3   246  ASP246     -0.1239
    101  CA         8.4570   17.8020   54.8610 C.3   246  ASP246      0.1674
    102  C          8.0290   19.2660   54.9690 C.2   246  ASP246      0.2266
    103  O          8.3100   19.9420   55.9710 O.2   246  ASP246     -0.2867
    104  CB         9.5520   17.4640   55.8660 C.3   246  ASP246      0.1410
    105  CG         9.0480   17.3940   57.2860 C.2   246  ASP246      0.3668
    106  OD1        7.8580   17.0720   57.4960 O.co2 246  ASP246     -0.2456
    107  OD2        9.8580   17.6480   58.2020 O.co2 246  ASP246     -0.2456
    108  N          6.0750   22.0010   56.1630 N.3   248  ALA248     -0.1245
    109  CA         5.5090   21.9420   57.5150 C.3   248  ALA248      0.1562
    110  C          5.1770   23.3800   57.9400 C.2   248  ALA248      0.2260
    111  O          5.9410   24.0150   58.6800 O.2   248  ALA248     -0.2867
    112  CB         6.5160   21.3320   58.4580 C.3   248  ALA248      0.0290
    113  N          3.6880   26.7980   59.5430 N.3   250  HIS250     -0.1241
    114  CA         3.1790   27.4390   60.7510 C.3   250  HIS250      0.1621
    115  C          3.0110   28.9180   60.4680 C.2   250  HIS250      0.2264
    116  O          3.8180   29.5160   59.7400 O.2   250  HIS250     -0.2867
    117  CB         4.1700   27.2530   61.8950 C.3   250  HIS250      0.0745
    118  CG         4.4070   25.8210   62.2670 C.ar  250  HIS250      0.0817
    119  ND1        3.5850   25.1350   63.1350 N.ar  250  HIS250     -0.2268
    120  CD2        5.3770   24.9530   61.9030 C.ar  250  HIS250      0.1154
    121  CE1        4.0320   23.9000   63.2760 C.ar  250  HIS250      0.1986
    122  NE2        5.1190   23.7640   62.5400 N.ar  250  HIS250     -0.2212
    123  N          8.7190   24.1880   65.1130 N.3   262  ALA262     -0.1231
    124  CA         9.5620   23.5400   64.1450 C.3   262  ALA262      0.1694
    125  C          8.8150   23.2730   62.8450 C.2   262  ALA262      0.2592
    126  O          7.7040   22.7250   62.8550 O.2   262  ALA262     -0.2718
    127  CB        10.0650   22.2170   64.7160 C.3   262  ALA262      0.0304
    128  N          9.4570   23.6110   61.7300 N.am  263  GLY263     -0.1957
    129  CA         8.9580   23.2550   60.3920 C.3   263  GLY263      0.1869
    130  C          9.1730   24.3430   59.3560 C.2   263  GLY263      0.2309
    131  O          8.9620   25.5340   59.6420 O.2   263  GLY263     -0.2863
@<TRIPOS>BOND
     1     1     2    1
     2     4     3    2
     3     2     3    1
     4     2     5    1
     5   100   101    1
     6     5     6    1
     7   101   102    1
     8   101   104    1
     9    14    13    2
    10   102   103    2
    11    11    12    1
    12     6     8   ar
    13     6     7   ar
    14    13    12    1
    15   104   105    1
    16     8    10   ar
    17     7     9   ar
    18    12    15    1
    19   108   109    1
    20    76    77    1
    21    77    80    1
    22    77    78    1
    23    80    81    1
    24    21    22    1
    25    10     9   ar
    26    78    79    2
    27    15    16    1
    28   105   106   ar
    29   105   107   ar
    30    24    23    2
    31   109   110    1
    32   109   112    1
    33    18    16   ar
    34    18    20   ar
    35   110   111    2
    36    16    17   ar
    37    23    22    1
    38    22    25    1
    39    81    83   ar
    40    81    82   ar
    41    25    26    1
    42    26    27    1
    43    20    19   ar
    44    83    85   ar
    45    17    19   ar
    46    82    84   ar
    47   130   131    2
    48   130   129    1
    49   113   114    1
    50    91    90    1
    51    27    28    1
    52   116   115    2
    53    28    29    2
    54    85    84   ar
    55    29    31    1
    56    29    30    1
    57   129   128    1
    58    90    87    1
    59   115   114    1
    60   114   117    1
    61    95    94    2
    62    38    37    2
    63    51    50    1
    64    32    33    1
    65   128   125   am
    66    66    67    1
    67   117   118    1
    68   120   118   ar
    69   120   122   ar
    70    87    86    1
    71    87    88    1
    72    94    93    1
    73    37    39   am
    74    37    36    1
    75   118   119   ar
    76    50    48   ar
    77    50    49   ar
    78    67    70    1
    79    67    68    1
    80   122   121   ar
    81    88    92   am
    82    88    89    2
    83    92    93    1
    84   125   126    2
    85   125   124    1
    86    48    46   ar
    87    33    34    1
    88    33    36    1
    89    49    47   ar
    90    70    71    1
    91    34    35    2
    92    72    71   ar
    93    72    74   ar
    94    93    96    1
    95   119   121   ar
    96    68    69    2
    97    71    73   ar
    98    74    75   ar
    99    46    45   ar
   100    47    45   ar
   101   124   127    1
   102   124   123    1
   103    96    97    1
   104    73    75   ar
   105    45    44    1
   106    64    63    1
   107    57    56    1
   108    63    65    1
   109    63    60    1
   110    40    41    1
   111    97    99    1
   112    97    98    1
   113    58    56    1
   114    62    61    2
   115    41    44    1
   116    41    42    1
   117    56    53    1
   118    60    59    1
   119    60    61    1
   120    59    54   am
   121    42    43    2
   122    53    54    1
   123    53    52    1
   124    54    55    2
