@<TRIPOS>MOLECULE
tmp/2z28A00.pdb
 117 111 0 0 0
SMALL
GASTEIGER

@<TRIPOS>ATOM
      1  N         31.2130   41.8670   82.9000 N.3    13  HIS13      -0.1241
      2  CA        30.8830   41.8600   81.4630 C.3    13  HIS13       0.1621
      3  C         29.4340   42.2810   81.1920 C.2    13  HIS13       0.2264
      4  O         28.5230   41.4780   81.2960 O.2    13  HIS13      -0.2867
      5  CB        31.1610   40.4750   80.8760 C.3    13  HIS13       0.0745
      6  CG        31.0620   40.3960   79.3860 C.ar   13  HIS13       0.0817
      7  ND1       31.9710   39.6800   78.6380 N.ar   13  HIS13      -0.2268
      8  CD2       30.1800   40.9240   78.4990 C.ar   13  HIS13       0.1154
      9  CE1       31.6400   39.7380   77.3550 C.ar   13  HIS13       0.1986
     10  NE2       30.5480   40.4760   77.2440 N.ar   13  HIS13      -0.2212
     11  N         26.5030   44.7370   78.7840 N.3    15  HIS15      -0.1241
     12  CA        26.0210   45.6180   77.7300 C.3    15  HIS15       0.1621
     13  C         24.8930   46.4800   78.2430 C.2    15  HIS15       0.2264
     14  O         23.8730   45.9880   78.6890 O.2    15  HIS15      -0.2867
     15  CB        25.5850   44.7810   76.5170 C.3    15  HIS15       0.0745
     16  CG        26.6950   43.9580   75.9530 C.ar   15  HIS15       0.0817
     17  ND1       27.5590   44.4610   75.0020 N.ar   15  HIS15      -0.2268
     18  CD2       27.1280   42.6970   76.2380 C.ar   15  HIS15       0.1154
     19  CE1       28.4660   43.5360   74.7100 C.ar   15  HIS15       0.1986
     20  NE2       28.2290   42.4600   75.4460 N.ar   15  HIS15      -0.2212
     21  N         23.8980   49.2870   76.2450 N.3    17  ARG17      -0.1245
     22  CA        23.3390   49.9600   75.0750 C.3    17  ARG17       0.1563
     23  C         23.4100   51.4910   75.2470 C.2    17  ARG17       0.2260
     24  O         24.2910   51.9890   75.9490 O.2    17  ARG17      -0.2867
     25  CB        21.9130   49.4670   74.8330 C.3    17  ARG17       0.0307
     26  CG        21.7550   47.9610   74.8750 C.3    17  ARG17       0.0489
     27  CD        22.6230   47.2310   73.8400 C.3    17  ARG17       0.2205
     28  NE        22.2700   45.7940   73.7230 N.pl3  17  ARG17      -0.0865
     29  CZ        23.0710   44.8210   73.3380 C.cat  17  ARG17       0.5346
     30  NH1       24.3440   45.0700   73.0030 N.pl3  17  ARG17       0.1354
     31  NH2       22.6000   43.5680   73.2890 N.pl3  17  ARG17       0.1354
     32  N         30.5070   47.9550   72.2570 N.3    41  ASN41      -0.1240
     33  CA        29.9420   47.6140   70.9600 C.3    41  ASN41       0.1653
     34  C         28.6620   48.3960   70.6790 C.2    41  ASN41       0.2266
     35  O         27.6260   47.8310   70.3270 O.2    41  ASN41      -0.2867
     36  CB        29.7480   46.0980   70.8290 C.3    41  ASN41       0.1155
     37  CG        28.7360   45.5410   71.8030 C.2    41  ASN41       0.2627
     38  OD1       28.5470   46.0870   72.8950 O.2    41  ASN41      -0.2716
     39  ND2       28.1310   44.3800   71.4390 N.am   41  ASN41      -0.0877
     40  N         36.8900   41.7150   69.7470 N.3   100  TYR100     -0.1241
     41  CA        35.8540   40.8870   69.1130 C.3   100  TYR100      0.1605
     42  C         36.4690   40.0230   68.0000 C.2   100  TYR100      0.2264
     43  O         37.6050   40.2640   67.5490 O.2   100  TYR100     -0.2867
     44  CB        34.6910   41.7850   68.6320 C.3   100  TYR100      0.0534
     45  CG        33.8350   42.3250   69.7710 C.ar  100  TYR100     -0.0201
     46  CD1       34.0210   43.6350   70.2700 C.ar  100  TYR100     -0.0009
     47  CD2       32.8380   41.5560   70.3480 C.ar  100  TYR100     -0.0009
     48  CE1       33.2520   44.1320   71.3230 C.ar  100  TYR100      0.0417
     49  CE2       32.0560   42.0460   71.3950 C.ar  100  TYR100      0.0417
     50  CZ        32.2620   43.3360   71.8980 C.ar  100  TYR100      0.1957
     51  OH        31.4750   43.8110   72.9420 O.3   100  TYR100     -0.2866
     52  N         36.4770   38.1060   73.3070 N.3   135  HIS135     -0.1241
     53  CA        35.3940   37.2770   72.8520 C.3   135  HIS135      0.1621
     54  C         36.0580   36.2540   71.9380 C.2   135  HIS135      0.2264
     55  O         36.3650   36.5300   70.7520 O.2   135  HIS135     -0.2867
     56  CB        34.3110   38.0770   72.1100 C.3   135  HIS135      0.0745
     57  CG        33.2020   37.2260   71.5830 C.ar  135  HIS135      0.0817
     58  ND1       31.8850   37.4500   71.8960 N.ar  135  HIS135     -0.2268
     59  CD2       33.2230   36.1010   70.8190 C.ar  135  HIS135      0.1154
     60  CE1       31.1370   36.5270   71.3100 C.ar  135  HIS135      0.1986
     61  NE2       31.9260   35.6950   70.6540 N.ar  135  HIS135     -0.2212
     62  N         33.0190   35.1400   78.8480 N.3   173  HIS173     -0.1241
     63  CA        31.9070   34.2170   78.6750 C.3   173  HIS173      0.1621
     64  C         32.2910   32.8740   78.0600 C.2   173  HIS173      0.2264
     65  O         31.8410   32.5430   76.9430 O.2   173  HIS173     -0.2867
     66  CB        30.7540   34.8510   77.8940 C.3   173  HIS173      0.0745
     67  CG        31.1520   35.5280   76.6110 C.ar  173  HIS173      0.0817
     68  ND1       31.9760   34.9520   75.6700 N.ar  173  HIS173     -0.2268
     69  CD2       30.7930   36.7320   76.1120 C.ar  173  HIS173      0.1154
     70  CE1       32.1510   35.8020   74.6660 C.ar  173  HIS173      0.1986
     71  NE2       31.4200   36.8780   74.8970 N.ar  173  HIS173     -0.2212
     72  N         22.2880   33.2530   72.1690 N.3   217  CYS217     -0.1221
     73  CA        23.3250   34.2250   72.5460 C.3   217  CYS217      0.1808
     74  C         24.6300   33.6730   71.9690 C.2   217  CYS217      0.2601
     75  O         24.6900   32.5110   71.5760 O.2   217  CYS217     -0.2717
     76  CB        23.4310   34.4250   74.0570 C.3   217  CYS217      0.0970
     77  SG        23.8780   32.9500   74.9610 S.3   217  CYS217     -0.0800
     78  N         25.6400   34.5240   71.8720 N.am  218  LEU218     -0.1979
     79  CA        26.9850   34.0910   71.4790 C.3   218  LEU218      0.1596
     80  C         27.9190   34.2630   72.6690 C.2   218  LEU218      0.2287
     81  O         27.7820   35.2230   73.4140 O.2   218  LEU218     -0.2864
     82  CB        27.5370   34.9390   70.3290 C.3   218  LEU218      0.0297
     83  CG        26.6610   35.0290   69.0920 C.3   218  LEU218      0.0022
     84  CD1       27.3280   35.9730   68.0770 C.3   218  LEU218      0.0001
     85  CD2       26.3830   33.6340   68.4820 C.3   218  LEU218      0.0001
     86  N         27.2190   39.0950   80.8370 N.3   246  ASP246     -0.1239
     87  CA        26.9390   39.3570   79.4320 C.3   246  ASP246      0.1674
     88  C         25.4830   39.6790   79.1980 C.2   246  ASP246      0.2266
     89  O         24.9280   39.2930   78.1650 O.2   246  ASP246     -0.2867
     90  CB        27.3920   38.2240   78.5120 C.3   246  ASP246      0.1410
     91  CG        27.5410   38.6390   77.0820 C.2   246  ASP246      0.3668
     92  OD1       27.7670   39.8620   76.7750 O.co2 246  ASP246     -0.2456
     93  OD2       27.4960   37.7140   76.2260 O.co2 246  ASP246     -0.2456
     94  N         22.6710   41.3860   77.7210 N.3   248  ALA248     -0.1245
     95  CA        22.7830   41.8530   76.3490 C.3   248  ALA248      0.1562
     96  C         21.3730   42.0240   75.7720 C.2   248  ALA248      0.2260
     97  O         20.8650   41.1800   75.0340 O.2   248  ALA248     -0.2867
     98  CB        23.5690   40.8540   75.5240 C.3   248  ALA248      0.0290
     99  N         17.9210   43.0380   73.8750 N.3   250  HIS250     -0.1241
    100  CA        17.3320   43.3460   72.5900 C.3   250  HIS250      0.1621
    101  C         15.8260   43.4350   72.7830 C.2   250  HIS250      0.2264
    102  O         15.2570   42.6620   73.5540 O.2   250  HIS250     -0.2867
    103  CB        17.6450   42.2440   71.5640 C.3   250  HIS250      0.0745
    104  CG        19.1040   42.1230   71.2550 C.ar  250  HIS250      0.0817
    105  ND1       19.7450   42.9650   70.3760 N.ar  250  HIS250     -0.2268
    106  CD2       20.0580   41.2920   71.7550 C.ar  250  HIS250      0.1154
    107  CE1       21.0280   42.6340   70.3120 C.ar  250  HIS250      0.1986
    108  NE2       21.2560   41.6420   71.1600 N.ar  250  HIS250     -0.2212
    109  N         21.2640   37.9210   68.9420 N.3   262  ALA262     -0.1231
    110  CA        21.9220   37.1500   69.9910 C.3   262  ALA262      0.1694
    111  C         22.0240   37.9880   71.2660 C.2   262  ALA262      0.2592
    112  O         22.5010   39.1170   71.2240 O.2   262  ALA262     -0.2718
    113  CB        23.3340   36.7500   69.5550 C.3   262  ALA262      0.0304
    114  N         21.6030   37.4090   72.3860 N.am  263  GLY263     -0.1957
    115  CA        21.8300   37.9890   73.6830 C.3   263  GLY263      0.1869
    116  C         20.6900   37.7810   74.6730 C.2   263  GLY263      0.2309
    117  O         19.5210   37.9120   74.3290 O.2   263  GLY263     -0.2863
@<TRIPOS>BOND
     1    43    42    2
     2    42    41    1
     3    84    83    1
     4    85    83    1
     5    44    41    1
     6    44    45    1
     7   109   110    1
     8    83    82    1
     9    41    40    1
    10   113   110    1
    11    45    46   ar
    12    45    47   ar
    13   110   111    1
    14    46    48   ar
    15   107   105   ar
    16   107   108   ar
    17    35    34    2
    18    82    79    1
    19    47    49   ar
    20   105   104   ar
    21    61    59   ar
    22    61    60   ar
    23    34    33    1
    24    55    54    2
    25    59    57   ar
    26    36    33    1
    27    36    37    1
    28    33    32    1
    29   108   106   ar
    30   112   111    2
    31   104   103    1
    32   104   106   ar
    33   111   114   am
    34    60    58   ar
    35    48    50   ar
    36    49    50   ar
    37    39    37   am
    38    79    78    1
    39    79    80    1
    40   103   100    1
    41    75    74    2
    42    57    58   ar
    43    57    56    1
    44    37    38    2
    45    78    74   am
    46    50    51    1
    47    54    53    1
    48    74    73    1
    49    56    53    1
    50    72    73    1
    51   114   115    1
    52    73    76    1
    53   100   101    1
    54   100    99    1
    55    80    81    2
    56   101   102    2
    57    53    52    1
    58    30    29    1
    59    31    29    1
    60    29    28    2
    61   115   116    1
    62    28    27    1
    63    27    26    1
    64    76    77    1
    65   117   116    2
    66    70    71   ar
    67    70    68   ar
    68    19    17   ar
    69    19    20   ar
    70    25    26    1
    71    25    22    1
    72    71    69   ar
    73    17    16   ar
    74    97    96    2
    75    22    23    1
    76    22    21    1
    77    23    24    2
    78    20    18   ar
    79    98    95    1
    80    68    67   ar
    81    96    95    1
    82    16    18   ar
    83    16    15    1
    84    69    67   ar
    85    93    91   ar
    86    95    94    1
    87    15    12    1
    88    67    66    1
    89    92    91   ar
    90    65    64    2
    91    91    90    1
    92    10     9   ar
    93    10     8   ar
    94     9     7   ar
    95    12    13    1
    96    12    11    1
    97    66    63    1
    98    64    63    1
    99    89    88    2
   100    13    14    2
   101     8     6   ar
   102    90    87    1
   103     7     6   ar
   104    63    62    1
   105    88    87    1
   106     6     5    1
   107    87    86    1
   108     5     2    1
   109     3     4    2
   110     3     2    1
   111     2     1    1
