@<TRIPOS>MOLECULE
tmp/2z2cC00.pdb
 136 136 0 0 0
SMALL
GASTEIGER

@<TRIPOS>ATOM
      1  N        -10.7040   -7.7830  -39.1400 N.3    90  ARG90      -0.1245
      2  CA       -11.4880   -7.8510  -37.9370 C.3    90  ARG90       0.1563
      3  C        -11.7800   -6.4340  -37.3980 C.2    90  ARG90       0.2260
      4  O        -12.7730   -6.2180  -36.6920 O.2    90  ARG90      -0.2867
      5  CB       -10.7690   -8.7450  -36.9190 C.3    90  ARG90       0.0307
      6  CG        -9.4450   -8.2480  -36.3830 C.3    90  ARG90       0.0489
      7  CD        -9.0790   -9.0120  -35.0840 C.3    90  ARG90       0.2205
      8  NE        -9.0860  -10.4050  -35.4230 N.pl3  90  ARG90      -0.0865
      9  CZ        -9.7670  -11.3710  -34.8380 C.cat  90  ARG90       0.5346
     10  NH1      -10.4730  -11.1940  -33.7290 N.pl3  90  ARG90       0.1354
     11  NH2       -9.6710  -12.5610  -35.3930 N.pl3  90  ARG90       0.1354
     12  N        -15.4380   -2.2030  -35.8600 N.3    94  TRP94      -0.1241
     13  CA       -15.6600   -0.7750  -35.6350 C.3    94  TRP94       0.1605
     14  C        -16.8920   -0.0690  -36.2760 C.2    94  TRP94       0.2264
     15  O        -17.2080    1.0600  -35.8920 O.2    94  TRP94      -0.2867
     16  CB       -14.3940   -0.0350  -36.0100 C.3    94  TRP94       0.0550
     17  CG       -13.3720   -0.0210  -34.9450 C.ar   94  TRP94       0.0003
     18  CD1      -13.5740   -0.0780  -33.5730 C.ar   94  TRP94       0.0946
     19  CD2      -11.9830    0.1420  -35.1380 C.ar   94  TRP94       0.0152
     20  NE1      -12.3530    0.0060  -32.9090 N.ar   94  TRP94      -0.2442
     21  CE2      -11.3720    0.1680  -33.8550 C.ar   94  TRP94       0.0810
     22  CE3      -11.1780    0.2650  -36.2790 C.ar   94  TRP94       0.0012
     23  CZ2       -9.9900    0.3020  -33.6950 C.ar   94  TRP94       0.0191
     24  CZ3       -9.8360    0.4010  -36.1240 C.ar   94  TRP94       0.0001
     25  CH2       -9.2370    0.4270  -34.8310 C.ar   94  TRP94       0.0015
     26  N         -7.9390  -12.7000  -29.8580 N.3   119  ARG119     -0.1231
     27  CA        -8.5020  -11.3520  -30.0580 C.3   119  ARG119      0.1679
     28  C        -10.0300  -11.2780  -29.9570 C.2   119  ARG119      0.2434
     29  O        -10.7120  -11.0480  -30.9810 O.2   119  ARG119     -0.2733
     30  CB        -8.0200  -10.8030  -31.3690 C.3   119  ARG119      0.0321
     31  CG        -6.5020  -10.7770  -31.4540 C.3   119  ARG119      0.0489
     32  CD        -6.1620  -10.3330  -32.8160 C.3   119  ARG119      0.2205
     33  NE        -6.1470   -8.8790  -32.8290 N.pl3 119  ARG119     -0.0865
     34  CZ        -5.5510   -8.1250  -33.7420 C.cat 119  ARG119      0.5346
     35  NH1       -4.9610   -8.6640  -34.7880 N.pl3 119  ARG119      0.1354
     36  NH2       -5.5740   -6.7980  -33.6170 N.pl3 119  ARG119      0.1354
     37  N        -10.5710  -11.5140  -28.7410 N.am  120  PRO120     -0.2718
     38  CA       -12.0000  -11.4110  -28.5620 C.3   120  PRO120      0.1535
     39  C        -12.3930   -9.9300  -28.5390 C.2   120  PRO120      0.2598
     40  O        -11.5420   -9.0700  -28.4200 O.2   120  PRO120     -0.2715
     41  CB       -12.2420  -12.0740  -27.1890 C.3   120  PRO120      0.0310
     42  CG       -10.9590  -11.8920  -26.4480 C.3   120  PRO120      0.0237
     43  CD        -9.8770  -11.9200  -27.5010 C.3   120  PRO120      0.0939
     44  N        -13.6830   -9.6650  -28.6460 N.am  121  VAL121     -0.1964
     45  CA       -14.2040   -8.3270  -28.7300 C.3   121  VAL121      0.1727
     46  C        -15.2070   -8.1420  -27.5610 C.2   121  VAL121      0.2616
     47  O        -16.0650   -7.2850  -27.6110 O.2   121  VAL121     -0.2715
     48  CB       -14.8230   -8.0670  -30.1570 C.3   121  VAL121      0.0290
     49  CG1      -13.7070   -8.0710  -31.2640 C.3   121  VAL121      0.0023
     50  CG2      -15.8490   -9.1180  -30.5040 C.3   121  VAL121      0.0023
     51  N        -15.0390   -8.9260  -26.4840 N.am  122  ASP122     -0.1957
     52  CA       -15.9170   -8.8470  -25.2960 C.3   122  ASP122      0.1840
     53  C        -16.0420   -7.4350  -24.7720 C.2   122  ASP122      0.2622
     54  O        -17.1210   -7.0240  -24.3070 O.2   122  ASP122     -0.2715
     55  CB       -15.4610   -9.7630  -24.1630 C.3   122  ASP122      0.1450
     56  CG       -13.9920   -9.5490  -23.7740 C.2   122  ASP122      0.3671
     57  OD1      -13.1140   -9.5970  -24.6280 O.co2 122  ASP122     -0.2456
     58  OD2      -13.7070   -9.3330  -22.5890 O.co2 122  ASP122     -0.2456
     59  N        -14.9530   -6.6780  -24.8710 N.am  123  LEU123     -0.1963
     60  CA       -14.9030   -5.3480  -24.2580 C.3   123  LEU123      0.1728
     61  C        -15.6430   -4.3460  -25.1320 C.2   123  LEU123      0.2616
     62  O        -16.1570   -3.3410  -24.6440 O.2   123  LEU123     -0.2715
     63  CB       -13.4350   -4.8760  -24.0250 C.3   123  LEU123      0.0311
     64  CG       -12.5090   -5.6720  -23.0600 C.3   123  LEU123      0.0022
     65  CD1      -11.0580   -5.3510  -23.2340 C.3   123  LEU123      0.0001
     66  CD2      -12.9100   -5.4970  -21.5970 C.3   123  LEU123      0.0001
     67  N        -15.6680   -4.5830  -26.4300 N.am  124  HIS124     -0.1973
     68  CA       -16.4520   -3.7340  -27.3220 C.3   124  HIS124      0.1656
     69  C        -17.8900   -3.9750  -26.9890 C.2   124  HIS124      0.2291
     70  O        -18.6700   -3.0400  -26.7880 O.2   124  HIS124     -0.2864
     71  CB       -16.2560   -4.1180  -28.7880 C.3   124  HIS124      0.0771
     72  CG       -14.8520   -3.9800  -29.2970 C.ar  124  HIS124      0.0820
     73  ND1      -14.5300   -3.1550  -30.3530 N.ar  124  HIS124     -0.2267
     74  CD2      -13.7240   -4.6650  -28.9960 C.ar  124  HIS124      0.1154
     75  CE1      -13.2430   -3.2880  -30.6440 C.ar  124  HIS124      0.1986
     76  NE2      -12.7330   -4.2060  -29.8300 N.ar  124  HIS124     -0.2212
     77  N         -9.5700   -4.1780  -19.1590 N.3   159  LYS159     -0.1231
     78  CA        -8.1960   -4.1390  -19.5710 C.3   159  LYS159      0.1693
     79  C         -8.0450   -3.1170  -20.6480 C.2   159  LYS159      0.2592
     80  O         -9.0370   -2.5810  -21.1510 O.2   159  LYS159     -0.2718
     81  CB        -7.5980   -5.5130  -19.9280 C.3   159  LYS159      0.0285
     82  CG        -8.3780   -6.4970  -20.7710 C.3   159  LYS159      0.0035
     83  CD        -7.3560   -7.2950  -21.6100 C.3   159  LYS159      0.0206
     84  CE        -7.5720   -8.8240  -21.5930 C.3   159  LYS159      0.1093
     85  NZ        -6.4800   -9.5390  -22.3890 N.3   159  LYS159     -0.1314
     86  N         -6.8010   -2.8220  -20.9710 N.am  160  VAL160     -0.1966
     87  CA        -6.5160   -1.8290  -21.9650 C.3   160  VAL160      0.1727
     88  C         -6.7830   -2.4320  -23.3510 C.2   160  VAL160      0.2617
     89  O         -6.3270   -3.5280  -23.7050 O.2   160  VAL160     -0.2715
     90  CB        -5.1020   -1.2210  -21.7710 C.3   160  VAL160      0.0290
     91  CG1       -4.7260   -0.3550  -22.9030 C.3   160  VAL160      0.0023
     92  CG2       -5.0600   -0.3830  -20.4930 C.3   160  VAL160      0.0023
     93  N         -7.5810   -1.7120  -24.1130 N.am  161  SER161     -0.1936
     94  CA        -7.9110   -2.1280  -25.4780 C.3   161  SER161      0.2055
     95  C         -8.0460   -0.9070  -26.3160 C.2   161  SER161      0.2643
     96  O         -8.9480   -0.1110  -26.0970 O.2   161  SER161     -0.2714
     97  CB        -9.2470   -2.8790  -25.5310 C.3   161  SER161      0.2130
     98  OG        -9.5630   -3.2550  -26.8790 O.3   161  SER161     -0.2179
     99  N         -7.1520   -0.7840  -27.2940 N.am  162  VAL162     -0.1963
    100  CA        -7.2850    0.2120  -28.3390 C.3   162  VAL162      0.1727
    101  C         -8.6360    0.1370  -29.0310 C.2   162  VAL162      0.2616
    102  O         -9.3090    1.1430  -29.2360 O.2   162  VAL162     -0.2715
    103  CB        -6.2390   -0.0450  -29.4160 C.3   162  VAL162      0.0290
    104  CG1       -6.4650    0.8770  -30.5640 C.3   162  VAL162      0.0023
    105  CG2       -4.7920    0.0110  -28.8100 C.3   162  VAL162      0.0023
    106  N         -9.0070   -1.0520  -29.4690 N.am  163  GLY163     -0.1955
    107  CA       -10.1780   -1.1830  -30.3020 C.3   163  GLY163      0.1869
    108  C        -11.4290   -0.9180  -29.5290 C.2   163  GLY163      0.2309
    109  O        -12.3320   -0.2240  -30.0450 O.2   163  GLY163     -0.2863
    110  N          1.1680   -8.3030  -24.9090 N.3   326  VAL326     -0.1231
    111  CA        -0.0970   -7.8830  -25.5420 C.3   326  VAL326      0.1692
    112  C         -0.8190   -8.9720  -26.3490 C.2   326  VAL326      0.2592
    113  O         -2.0370   -9.1660  -26.1980 O.2   326  VAL326     -0.2718
    114  CB         0.0310   -6.5890  -26.3650 C.3   326  VAL326      0.0266
    115  CG1       -1.3480   -6.1770  -26.9410 C.3   326  VAL326      0.0020
    116  CG2        0.6780   -5.4470  -25.5300 C.3   326  VAL326      0.0020
    117  N         -0.0840   -9.6820  -27.1890 N.am  327  PHE327     -0.1962
    118  CA        -0.6480  -10.7860  -27.9410 C.3   327  PHE327      0.1771
    119  C          0.0670  -12.0500  -27.5570 C.2   327  PHE327      0.2619
    120  O          1.2800  -12.0370  -27.4150 O.2   327  PHE327     -0.2715
    121  CB        -0.5770  -10.5460  -29.4570 C.3   327  PHE327      0.0574
    122  CG        -1.4840   -9.4580  -29.9160 C.ar  327  PHE327     -0.0200
    123  CD1       -2.8850   -9.6300  -29.8530 C.ar  327  PHE327     -0.0042
    124  CD2       -0.9810   -8.2470  -30.3530 C.ar  327  PHE327     -0.0042
    125  CE1       -3.7340   -8.6200  -30.2350 C.ar  327  PHE327     -0.0003
    126  CE2       -1.8620   -7.2290  -30.7560 C.ar  327  PHE327     -0.0003
    127  CZ        -3.2340   -7.4140  -30.6790 C.ar  327  PHE327     -0.0000
    128  N         -0.6950  -13.1360  -27.4220 N.am  328  GLU328     -0.1977
    129  CA        -0.1810  -14.4090  -26.9200 C.3   328  GLU328      0.1602
    130  C          0.5710  -15.2400  -27.9550 C.2   328  GLU328      0.2287
    131  O          1.2450  -16.2050  -27.5930 O.2   328  GLU328     -0.2864
    132  CB        -1.3100  -15.2430  -26.2730 C.3   328  GLU328      0.0415
    133  CG        -2.4000  -15.7910  -27.2500 C.3   328  GLU328      0.1163
    134  CD        -3.5600  -14.8050  -27.5890 C.2   328  GLU328      0.3649
    135  OE1       -3.4870  -13.5770  -27.2860 O.co2 328  GLU328     -0.2457
    136  OE2       -4.5440  -15.2830  -28.2140 O.co2 328  GLU328     -0.2457
@<TRIPOS>BOND
     1     1     2    1
     2     2     3    1
     3     2     5    1
     4     3     4    2
     5     5     6    1
     6     6     7    1
     7    22    24   ar
     8    22    19   ar
     9    14    15    2
    10    14    13    1
    11    24    25   ar
    12    16    13    1
    13    16    17    1
    14    12    13    1
    15     8     7    1
    16     8     9    2
    17    11     9    1
    18    19    17   ar
    19    19    21   ar
    20    17    18   ar
    21     9    10    1
    22    25    23   ar
    23    35    34    1
    24    21    23   ar
    25    21    20   ar
    26    34    36    1
    27    34    33    2
    28    18    20   ar
    29    33    32    1
    30    32    31    1
    31    31    30    1
    32    30    27    1
    33    49    48    1
    34    29    28    2
    35   126   127   ar
    36   126   124   ar
    37   127   125   ar
    38    75    73   ar
    39    75    76   ar
    40   104   103    1
    41    50    48    1
    42    73    72   ar
    43   124   122   ar
    44   107   108    1
    45   107   106    1
    46   125   123   ar
    47    48    45    1
    48    27    28    1
    49    27    26    1
    50   109   108    2
    51    28    37   am
    52   122   123   ar
    53   122   121    1
    54    76    74   ar
    55   106   101   am
    56   121   118    1
    57   103   105    1
    58   103   100    1
    59    72    74   ar
    60    72    71    1
    61   102   101    2
    62   101   100    1
    63    71    68    1
    64    37    38    1
    65    37    43    1
    66    45    44    1
    67    45    46    1
    68    44    39   am
    69    38    39    1
    70    38    41    1
    71    39    40    2
    72   100    99    1
    73   136   134   ar
    74   130   131    2
    75   130   129    1
    76   118   119    1
    77   118   117    1
    78    47    46    2
    79   134   135   ar
    80   134   133    1
    81    46    51   am
    82   119   128   am
    83   119   120    2
    84    43    42    1
    85   128   129    1
    86    68    69    1
    87    68    67    1
    88    99    95   am
    89   133   132    1
    90   117   112   am
    91    41    42    1
    92    69    70    2
    93   115   114    1
    94   129   132    1
    95    98    97    1
    96    51    52    1
    97    67    61   am
    98   114   111    1
    99   114   116    1
   100   112   113    2
   101   112   111    1
   102    95    96    2
   103    95    94    1
   104   111   110    1
   105    97    94    1
   106    94    93    1
   107    52    53    1
   108    52    55    1
   109    61    62    2
   110    61    60    1
   111    59    53   am
   112    59    60    1
   113    53    54    2
   114    57    56   ar
   115    60    63    1
   116    55    56    1
   117    93    88   am
   118    63    64    1
   119    56    58   ar
   120    89    88    2
   121    88    87    1
   122    65    64    1
   123    64    66    1
   124    91    90    1
   125    85    84    1
   126    87    90    1
   127    87    86    1
   128    90    92    1
   129    83    84    1
   130    83    82    1
   131    80    79    2
   132    86    79   am
   133    82    81    1
   134    79    78    1
   135    81    78    1
   136    78    77    1
