@<TRIPOS>MOLECULE
tmp/2z2cC01.pdb
 156 148 0 0 0
SMALL
GASTEIGER

@<TRIPOS>ATOM
      1  N         -1.9880    3.6590  -40.7360 N.3    22  LYS22      -0.1231
      2  CA        -3.0120    2.7020  -41.0290 C.3    22  LYS22       0.1693
      3  C         -4.0430    2.6770  -39.8530 C.2    22  LYS22       0.2592
      4  O         -5.2520    2.6200  -40.0450 O.2    22  LYS22      -0.2718
      5  CB        -2.3350    1.3310  -41.1740 C.3    22  LYS22       0.0285
      6  CG        -3.3020    0.1380  -41.0920 C.3    22  LYS22       0.0035
      7  CD        -2.5380   -1.1640  -41.0030 C.3    22  LYS22       0.0206
      8  CE        -3.3610   -2.2180  -40.2870 C.3    22  LYS22       0.1093
      9  NZ        -2.7700   -2.3350  -38.9970 N.3    22  LYS22      -0.1314
     10  N         -3.5340    2.7030  -38.6390 N.am   23  ASN23      -0.1974
     11  CA        -4.3460    2.4420  -37.4430 C.3    23  ASN23       0.1688
     12  C         -5.0510    3.6820  -36.8830 C.2    23  ASN23       0.2292
     13  O         -5.7530    3.6160  -35.8630 O.2    23  ASN23      -0.2864
     14  CB        -3.5070    1.7760  -36.3560 C.3    23  ASN23       0.1181
     15  CG        -3.2410    0.2990  -36.6500 C.2    23  ASN23       0.2629
     16  OD1       -3.9090   -0.3150  -37.4620 O.2    23  ASN23      -0.2716
     17  ND2       -2.2410   -0.2510  -36.0050 N.am   23  ASN23      -0.0877
     18  N         -8.0600    3.6670  -40.1900 N.3    26  LEU26      -0.1245
     19  CA        -9.1400    2.6890  -40.0390 C.3    26  LEU26       0.1561
     20  C        -10.2150    3.0750  -39.0450 C.2    26  LEU26       0.2260
     21  O        -11.3680    3.0380  -39.4130 O.2    26  LEU26      -0.2867
     22  CB        -8.6400    1.2460  -39.7590 C.3    26  LEU26       0.0270
     23  CG        -7.7300    0.5900  -40.7910 C.3    26  LEU26       0.0019
     24  CD1       -7.3750   -0.8110  -40.2830 C.3    26  LEU26       0.0001
     25  CD2       -8.4110    0.5730  -42.1560 C.3    26  LEU26       0.0001
     26  N        -10.9190   -5.4840  -37.7760 N.3    91  ALA91      -0.1245
     27  CA       -11.1600   -4.0450  -37.5680 C.3    91  ALA91       0.1562
     28  C        -12.5640   -3.5830  -37.9420 C.2    91  ALA91       0.2260
     29  O        -13.0960   -2.6380  -37.3520 O.2    91  ALA91      -0.2867
     30  CB       -10.1620   -3.2600  -38.3330 C.3    91  ALA91       0.0290
     31  N        -15.4380   -2.2030  -35.8600 N.3    94  TRP94      -0.1241
     32  CA       -15.6600   -0.7750  -35.6350 C.3    94  TRP94       0.1605
     33  C        -16.8920   -0.0690  -36.2760 C.2    94  TRP94       0.2264
     34  O        -17.2080    1.0600  -35.8920 O.2    94  TRP94      -0.2867
     35  CB       -14.3940   -0.0350  -36.0100 C.3    94  TRP94       0.0550
     36  CG       -13.3720   -0.0210  -34.9450 C.ar   94  TRP94       0.0003
     37  CD1      -13.5740   -0.0780  -33.5730 C.ar   94  TRP94       0.0946
     38  CD2      -11.9830    0.1420  -35.1380 C.ar   94  TRP94       0.0152
     39  NE1      -12.3530    0.0060  -32.9090 N.ar   94  TRP94      -0.2442
     40  CE2      -11.3720    0.1680  -33.8550 C.ar   94  TRP94       0.0810
     41  CE3      -11.1780    0.2650  -36.2790 C.ar   94  TRP94       0.0012
     42  CZ2       -9.9900    0.3020  -33.6950 C.ar   94  TRP94       0.0191
     43  CZ3       -9.8360    0.4010  -36.1240 C.ar   94  TRP94       0.0001
     44  CH2       -9.2370    0.4270  -34.8310 C.ar   94  TRP94       0.0015
     45  N         -7.9390  -12.7000  -29.8580 N.3   119  ARG119     -0.1245
     46  CA        -8.5020  -11.3520  -30.0580 C.3   119  ARG119      0.1563
     47  C        -10.0300  -11.2780  -29.9570 C.2   119  ARG119      0.2260
     48  O        -10.7120  -11.0480  -30.9810 O.2   119  ARG119     -0.2867
     49  CB        -8.0200  -10.8030  -31.3690 C.3   119  ARG119      0.0307
     50  CG        -6.5020  -10.7770  -31.4540 C.3   119  ARG119      0.0489
     51  CD        -6.1620  -10.3330  -32.8160 C.3   119  ARG119      0.2205
     52  NE        -6.1470   -8.8790  -32.8290 N.pl3 119  ARG119     -0.0865
     53  CZ        -5.5510   -8.1250  -33.7420 C.cat 119  ARG119      0.5346
     54  NH1       -4.9610   -8.6640  -34.7880 N.pl3 119  ARG119      0.1354
     55  NH2       -5.5740   -6.7980  -33.6170 N.pl3 119  ARG119      0.1354
     56  N         -7.1520   -0.7840  -27.2940 N.3   162  VAL162     -0.1231
     57  CA        -7.2850    0.2120  -28.3390 C.3   162  VAL162      0.1692
     58  C         -8.6360    0.1370  -29.0310 C.2   162  VAL162      0.2592
     59  O         -9.3090    1.1430  -29.2360 O.2   162  VAL162     -0.2718
     60  CB        -6.2390   -0.0450  -29.4160 C.3   162  VAL162      0.0266
     61  CG1       -6.4650    0.8770  -30.5640 C.3   162  VAL162      0.0020
     62  CG2       -4.7920    0.0110  -28.8100 C.3   162  VAL162      0.0020
     63  N         -9.0070   -1.0520  -29.4690 N.am  163  GLY163     -0.1957
     64  CA       -10.1780   -1.1830  -30.3020 C.3   163  GLY163      0.1869
     65  C        -11.4290   -0.9180  -29.5290 C.2   163  GLY163      0.2309
     66  O        -12.3320   -0.2240  -30.0450 O.2   163  GLY163     -0.2863
     67  N         -3.1900    5.2190  -26.9580 N.3   187  GLU187     -0.1245
     68  CA        -2.5090    5.2280  -28.2860 C.3   187  GLU187      0.1567
     69  C         -2.7340    6.5430  -29.0160 C.2   187  GLU187      0.2260
     70  O         -3.8320    7.0960  -28.9520 O.2   187  GLU187     -0.2867
     71  CB        -3.0130    4.0600  -29.1280 C.3   187  GLU187      0.0388
     72  CG        -2.2210    2.7500  -28.9750 C.3   187  GLU187      0.1160
     73  CD        -2.1420    2.1500  -27.5790 C.2   187  GLU187      0.3649
     74  OE1       -2.8950    2.5500  -26.6590 O.co2 187  GLU187     -0.2457
     75  OE2       -1.3310    1.1900  -27.4300 O.co2 187  GLU187     -0.2457
     76  N          3.4250    5.5130  -36.8670 N.3   231  ARG231     -0.1245
     77  CA         4.5790    5.3640  -35.9590 C.3   231  ARG231      0.1563
     78  C          5.3060    4.0300  -36.1280 C.2   231  ARG231      0.2260
     79  O          6.5420    3.9070  -35.9530 O.2   231  ARG231     -0.2867
     80  CB         4.1930    5.6000  -34.4910 C.3   231  ARG231      0.0307
     81  CG         3.1360    4.6590  -33.9500 C.3   231  ARG231      0.0489
     82  CD         2.5680    5.1250  -32.6360 C.3   231  ARG231      0.2205
     83  NE         1.2930    4.4290  -32.3790 N.pl3 231  ARG231     -0.0865
     84  CZ         1.1750    3.3690  -31.5860 C.cat 231  ARG231      0.5346
     85  NH1        2.2590    2.9350  -30.9240 N.pl3 231  ARG231      0.1354
     86  NH2       -0.0080    2.7610  -31.4260 N.pl3 231  ARG231      0.1354
     87  N          5.5510   -0.6290  -28.1940 N.3   302  PRO302     -0.2102
     88  CA         4.3310   -1.1990  -28.7790 C.3   302  PRO302      0.1504
     89  C          4.5590   -2.6070  -29.3130 C.2   302  PRO302      0.2576
     90  O          5.6010   -2.8820  -29.9000 O.2   302  PRO302     -0.2718
     91  CB         4.0310   -0.2530  -29.9530 C.3   302  PRO302      0.0282
     92  CG         5.4080    0.2220  -30.4160 C.3   302  PRO302      0.0208
     93  CD         6.2770    0.2520  -29.1350 C.3   302  PRO302      0.0893
     94  N          3.5570   -3.4620  -29.1960 N.am  303  THR303     -0.1939
     95  CA         3.6560   -4.7910  -29.7500 C.3   303  THR303      0.2028
     96  C          3.8440   -4.8110  -31.2760 C.2   303  THR303      0.2642
     97  O          4.4230   -5.7680  -31.8130 O.2   303  THR303     -0.2714
     98  CB         2.4240   -5.6060  -29.3810 C.3   303  THR303      0.1808
     99  OG1        2.4910   -6.8600  -30.0630 O.3   303  THR303     -0.2208
    100  CG2        1.1240   -4.8480  -29.8230 C.3   303  THR303      0.0379
    101  N          3.3920   -3.7700  -31.9840 N.am  304  ASP304     -0.1971
    102  CA         3.6120   -3.7260  -33.4400 C.3   304  ASP304      0.1709
    103  C          5.0580   -3.4340  -33.8650 C.2   304  ASP304      0.2293
    104  O          5.3530   -3.3970  -35.0540 O.2   304  ASP304     -0.2864
    105  CB         2.6830   -2.7510  -34.1190 C.3   304  ASP304      0.1436
    106  CG         1.2770   -3.0610  -33.8420 C.2   304  ASP304      0.3671
    107  OD1        1.0000   -4.2470  -33.5960 O.co2 304  ASP304     -0.2456
    108  OD2        0.4720   -2.1300  -33.8660 O.co2 304  ASP304     -0.2456
    109  N          1.1680   -8.3030  -24.9090 N.3   326  VAL326     -0.1231
    110  CA        -0.0970   -7.8830  -25.5420 C.3   326  VAL326      0.1692
    111  C         -0.8190   -8.9720  -26.3490 C.2   326  VAL326      0.2592
    112  O         -2.0370   -9.1660  -26.1980 O.2   326  VAL326     -0.2718
    113  CB         0.0310   -6.5890  -26.3650 C.3   326  VAL326      0.0266
    114  CG1       -1.3480   -6.1770  -26.9410 C.3   326  VAL326      0.0020
    115  CG2        0.6780   -5.4470  -25.5300 C.3   326  VAL326      0.0020
    116  N         -0.0840   -9.6820  -27.1890 N.am  327  PHE327     -0.1976
    117  CA        -0.6480  -10.7860  -27.9410 C.3   327  PHE327      0.1639
    118  C          0.0670  -12.0500  -27.5570 C.2   327  PHE327      0.2290
    119  O          1.2800  -12.0370  -27.4150 O.2   327  PHE327     -0.2864
    120  CB        -0.5770  -10.5460  -29.4570 C.3   327  PHE327      0.0560
    121  CG        -1.4840   -9.4580  -29.9160 C.ar  327  PHE327     -0.0200
    122  CD1       -2.8850   -9.6300  -29.8530 C.ar  327  PHE327     -0.0042
    123  CD2       -0.9810   -8.2470  -30.3530 C.ar  327  PHE327     -0.0042
    124  CE1       -3.7340   -8.6200  -30.2350 C.ar  327  PHE327     -0.0003
    125  CE2       -1.8620   -7.2290  -30.7560 C.ar  327  PHE327     -0.0003
    126  CZ        -3.2340   -7.4140  -30.6790 C.ar  327  PHE327     -0.0000
    127  N          2.5770  -13.9980  -30.9920 N.3   330  ARG330     -0.1245
    128  CA         3.1390  -13.1300  -31.9500 C.3   330  ARG330      0.1563
    129  C          4.6170  -13.4120  -32.0650 C.2   330  ARG330      0.2260
    130  O          5.4020  -12.4880  -32.1360 O.2   330  ARG330     -0.2867
    131  CB         2.8830  -11.6740  -31.5600 C.3   330  ARG330      0.0307
    132  CG         2.7640  -10.7730  -32.8200 C.3   330  ARG330      0.0489
    133  CD         2.4820   -9.3470  -32.4340 C.3   330  ARG330      0.2205
    134  NE         2.2400   -8.5840  -33.6350 N.pl3 330  ARG330     -0.0865
    135  CZ         1.7740   -7.3400  -33.6620 C.cat 330  ARG330      0.5346
    136  NH1        1.4830   -6.7440  -32.5320 N.pl3 330  ARG330      0.1354
    137  NH2        1.5620   -6.7240  -34.8290 N.pl3 330  ARG330      0.1354
    138  N          1.2440   -9.3140  -40.6030 N.3   369  LEU369     -0.1231
    139  CA         1.7590   -8.0330  -41.0710 C.3   369  LEU369      0.1693
    140  C          3.1510   -7.5970  -40.6090 C.2   369  LEU369      0.2591
    141  O          4.0460   -7.2800  -41.4410 O.2   369  LEU369     -0.2718
    142  CB         0.7500   -6.9500  -40.7280 C.3   369  LEU369      0.0284
    143  CG         1.1870   -5.5050  -40.9450 C.3   369  LEU369      0.0019
    144  CD1        1.3550   -5.1950  -42.4120 C.3   369  LEU369      0.0001
    145  CD2        0.1330   -4.6440  -40.3260 C.3   369  LEU369      0.0001
    146  N          3.3510   -7.5130  -39.2960 N.am  370  ARG370     -0.1980
    147  CA         4.6280   -7.0170  -38.8300 C.3   370  ARG370      0.1597
    148  C          5.7140   -8.0690  -39.0120 C.2   370  ARG370      0.2287
    149  O          6.8730   -7.7310  -39.2510 O.2   370  ARG370     -0.2864
    150  CB         4.5460   -6.4580  -37.3950 C.3   370  ARG370      0.0334
    151  CG         3.3490   -5.5220  -37.2010 C.3   370  ARG370      0.0492
    152  CD         3.5190   -4.2510  -38.0630 C.3   370  ARG370      0.2205
    153  NE         2.3260   -3.4320  -37.9690 N.pl3 370  ARG370     -0.0865
    154  CZ         2.0900   -2.3020  -38.6250 C.cat 370  ARG370      0.5346
    155  NH1        2.9730   -1.7740  -39.5030 N.pl3 370  ARG370      0.1354
    156  NH2        0.9250   -1.6990  -38.3930 N.pl3 370  ARG370      0.1354
@<TRIPOS>BOND
     1   144   143    1
     2    25    23    1
     3   141   140    2
     4     5     6    1
     5     5     2    1
     6     6     7    1
     7   139   142    1
     8   139   140    1
     9   139   138    1
    10     2     1    1
    11     2     3    1
    12     7     8    1
    13   143   142    1
    14   143   145    1
    15    23    24    1
    16    23    22    1
    17   140   146   am
    18     8     9    1
    19    18    19    1
    20     4     3    2
    21    19    22    1
    22    19    20    1
    23     3    10   am
    24   155   154    1
    25    21    20    2
    26   146   147    1
    27   149   148    2
    28   148   147    1
    29   147   150    1
    30    10    11    1
    31   154   156    1
    32   154   153    2
    33    30    27    1
    34   152   153    1
    35   152   151    1
    36    28    27    1
    37    28    29    2
    38    26    27    1
    39    16    15    2
    40    11    12    1
    41    11    14    1
    42   150   151    1
    43    12    13    2
    44    76    77    1
    45    15    14    1
    46    15    17   am
    47    41    43   ar
    48    41    38   ar
    49    33    34    2
    50    33    32    1
    51    78    77    1
    52    78    79    2
    53    43    44   ar
    54    35    32    1
    55    35    36    1
    56    77    80    1
    57    31    32    1
    58    38    36   ar
    59    38    40   ar
    60   104   103    2
    61    36    37   ar
    62    44    42   ar
    63   137   135    1
    64    54    53    1
    65    80    81    1
    66   105   106    1
    67   105   102    1
    68    81    82    1
    69   108   106   ar
    70   103   102    1
    71    40    42   ar
    72    40    39   ar
    73   106   107   ar
    74    53    55    1
    75    53    52    2
    76   135   134    2
    77   135   136    1
    78   134   133    1
    79    37    39   ar
    80   102   101    1
    81    52    51    1
    82   132   133    1
    83   132   131    1
    84    51    50    1
    85    82    83    1
    86    83    84    2
    87   130   129    2
    88   129   128    1
    89   101    96   am
    90   128   131    1
    91   128   127    1
    92    97    96    2
    93    84    86    1
    94    84    85    1
    95    50    49    1
    96    49    46    1
    97    96    95    1
    98    48    47    2
    99   125   126   ar
   100   125   123   ar
   101   126   124   ar
   102    61    60    1
   103    92    91    1
   104    92    93    1
   105   123   121   ar
   106    64    65    1
   107    64    63    1
   108   124   122   ar
   109    99    98    1
   110    46    47    1
   111    46    45    1
   112    66    65    2
   113    91    88    1
   114   121   122   ar
   115   121   120    1
   116    90    89    2
   117   100    98    1
   118    95    98    1
   119    95    94    1
   120    63    58   am
   121   120   117    1
   122    60    62    1
   123    60    57    1
   124    89    94   am
   125    89    88    1
   126    59    58    2
   127    93    87    1
   128    71    72    1
   129    71    68    1
   130    58    57    1
   131    69    70    2
   132    69    68    1
   133    72    73    1
   134    88    87    1
   135    57    56    1
   136    68    67    1
   137   117   118    1
   138   117   116    1
   139    73    75   ar
   140    73    74   ar
   141   118   119    2
   142   116   111   am
   143   114   113    1
   144   113   110    1
   145   113   115    1
   146   111   112    2
   147   111   110    1
   148   110   109    1
