@<TRIPOS>MOLECULE
tmp/2z2dA00.pdb
 202 202 0 0 0
SMALL
GASTEIGER

@<TRIPOS>ATOM
      1  N          1.7050   18.4370  -23.2650 N.3    66  PHE66      -0.1241
      2  CA         1.1460   19.7770  -23.3890 C.3    66  PHE66       0.1605
      3  C          0.4460   19.8770  -24.7350 C.2    66  PHE66       0.2264
      4  O          0.6660   20.8040  -25.5180 O.2    66  PHE66      -0.2867
      5  CB         2.1610   20.9240  -23.2220 C.3    66  PHE66       0.0534
      6  CG         3.2530   20.6360  -22.2110 C.ar   66  PHE66      -0.0203
      7  CD1        2.9350   20.1740  -20.9230 C.ar   66  PHE66      -0.0042
      8  CD2        4.6020   20.7130  -22.6150 C.ar   66  PHE66      -0.0042
      9  CE1        3.9560   19.8080  -20.0480 C.ar   66  PHE66      -0.0003
     10  CE2        5.6210   20.3460  -21.7410 C.ar   66  PHE66      -0.0003
     11  CZ         5.2940   19.9060  -20.4550 C.ar   66  PHE66      -0.0000
     12  N         11.7950   20.2990  -28.6170 N.3    75  ILE75      -0.1231
     13  CA        12.0040   19.3190  -27.5460 C.3    75  ILE75       0.1692
     14  C         12.5030   18.0150  -28.1610 C.2    75  ILE75       0.2592
     15  O         12.3670   17.7630  -29.3600 O.2    75  ILE75      -0.2718
     16  CB        10.6860   19.0580  -26.7730 C.3    75  ILE75       0.0266
     17  CG1        9.7730   18.0660  -27.5180 C.3    75  ILE75       0.0019
     18  CG2        9.8870   20.3440  -26.4900 C.3    75  ILE75       0.0020
     19  CD1        9.8370   16.7070  -26.8430 C.3    75  ILE75       0.0001
     20  N         13.0680   17.1200  -27.3270 N.am   76  LEU76      -0.1966
     21  CA        13.3600   15.7690  -27.7870 C.3    76  LEU76       0.1728
     22  C         12.5130   14.6640  -27.1620 C.2    76  LEU76       0.2616
     23  O         12.1540   13.6600  -27.7840 O.2    76  LEU76      -0.2715
     24  CB        14.8300   15.6020  -27.4850 C.3    76  LEU76       0.0311
     25  CG        15.7600   16.2680  -28.4990 C.3    76  LEU76       0.0022
     26  CD1       17.1760   15.7360  -28.2880 C.3    76  LEU76       0.0001
     27  CD2       15.3040   15.9960  -29.9120 C.3    76  LEU76       0.0001
     28  N         12.2660   14.7960  -25.8280 N.am   77  ALA77      -0.1963
     29  CA        11.5270   13.7860  -25.0810 C.3    77  ALA77       0.1728
     30  C         11.2860   14.2330  -23.6440 C.2    77  ALA77       0.2616
     31  O         11.6970   15.3220  -23.2440 O.2    77  ALA77      -0.2715
     32  CB        12.3280   12.5020  -25.0140 C.3    77  ALA77       0.0334
     33  N         10.6160   13.3840  -22.8700 N.am   78  HIS78      -0.1959
     34  CA        10.3200   13.6920  -21.4750 C.3    78  HIS78       0.1787
     35  C         10.0930   12.4140  -20.6730 C.2    78  HIS78       0.2620
     36  O          9.8060   11.3580  -21.2370 O.2    78  HIS78      -0.2715
     37  CB         9.0700   14.6070  -21.3680 C.3    78  HIS78       0.0785
     38  CG         7.7610   13.9060  -21.5260 C.ar   78  HIS78       0.0821
     39  ND1        6.6220   14.3100  -20.9140 N.ar   78  HIS78      -0.2267
     40  CD2        7.3820   12.7820  -22.2370 C.ar   78  HIS78       0.1154
     41  CE1        5.6360   13.4480  -21.2630 C.ar   78  HIS78       0.1986
     42  NE2        6.0460   12.5020  -22.0770 N.ar   78  HIS78      -0.2212
     43  N         10.2260   12.5170  -19.3540 N.am   79  ALA79      -0.1977
     44  CA        10.0340   11.3710  -18.4760 C.3    79  ALA79       0.1597
     45  C          9.2380   11.7570  -17.2340 C.2    79  ALA79       0.2287
     46  O          9.2410   12.9160  -16.8180 O.2    79  ALA79      -0.2864
     47  CB        11.3760   10.7810  -18.0390 C.3    79  ALA79       0.0319
     48  N         22.2790   12.7840  -25.8380 N.3   109  LEU109     -0.1231
     49  CA        21.8200   13.9610  -25.1080 C.3   109  LEU109      0.1693
     50  C         20.4670   13.7040  -24.4550 C.2   109  LEU109      0.2592
     51  O         20.2860   13.9390  -23.2590 O.2   109  LEU109     -0.2718
     52  CB        21.7250   15.1540  -26.0720 C.3   109  LEU109      0.0284
     53  CG        20.5030   16.0530  -25.9260 C.3   109  LEU109      0.0019
     54  CD1       20.6490   16.8930  -24.6810 C.3   109  LEU109      0.0001
     55  CD2       20.3410   16.9160  -27.1600 C.3   109  LEU109      0.0001
     56  N         19.5150   13.2180  -25.2460 N.am  110  THR110     -0.1953
     57  CA        18.1780   12.9260  -24.7450 C.3   110  THR110      0.1897
     58  C         18.2020   11.7630  -23.7610 C.2   110  THR110      0.2313
     59  O         17.4490   11.7450  -22.7880 O.2   110  THR110     -0.2863
     60  CB        17.2280   12.5400  -25.8740 C.3   110  THR110      0.1794
     61  OG1       17.7340   13.0960  -27.0910 O.3   110  THR110     -0.2208
     62  CG2       15.8810   13.1540  -25.5720 C.3   110  THR110      0.0378
     63  N         19.4540   13.1070  -20.3210 N.3   113  HIS113     -0.1226
     64  CA        18.4220   13.9300  -19.7000 C.3   113  HIS113      0.1752
     65  C         17.2300   13.0770  -19.2770 C.2   113  HIS113      0.2595
     66  O         16.7690   13.1600  -18.1390 O.2   113  HIS113     -0.2718
     67  CB        17.9590   15.0350  -20.6860 C.3   113  HIS113      0.0759
     68  CG        17.1920   16.1200  -20.0470 C.ar  113  HIS113      0.0818
     69  ND1       16.9920   17.3260  -20.6130 N.ar  113  HIS113     -0.2268
     70  CD2       16.4970   16.1830  -18.8690 C.ar  113  HIS113      0.1154
     71  CE1       16.1880   18.0550  -19.8180 C.ar  113  HIS113      0.1986
     72  NE2       15.8290   17.3730  -18.7530 N.ar  113  HIS113     -0.2212
     73  N         16.7350   12.2590  -20.2020 N.am  114  GLU114     -0.1979
     74  CA        15.5940   11.3940  -19.9230 C.3   114  GLU114      0.1602
     75  C         15.8870   10.4710  -18.7440 C.2   114  GLU114      0.2287
     76  O         15.0340   10.2590  -17.8820 O.2   114  GLU114     -0.2864
     77  CB        15.2170   10.5530  -21.1440 C.3   114  GLU114      0.0415
     78  CG        14.5290   11.3940  -22.2090 C.3   114  GLU114      0.1163
     79  CD        13.6760   12.4800  -21.6190 C.2   114  GLU114      0.3649
     80  OE1       12.7550   12.0590  -20.8880 O.co2 114  GLU114     -0.2457
     81  OE2       14.0360   13.6800  -21.8080 O.co2 114  GLU114     -0.2457
     82  N         16.0200   12.2170  -15.3000 N.3   117  HIS117     -0.1241
     83  CA        14.6850   12.5350  -14.8050 C.3   117  HIS117      0.1621
     84  C         14.1190   11.3770  -13.9880 C.2   117  HIS117      0.2264
     85  O         13.4600   11.5880  -12.9690 O.2   117  HIS117     -0.2867
     86  CB        13.7130   12.8620  -15.9720 C.3   117  HIS117      0.0745
     87  CG        13.4700   14.3180  -16.1270 C.ar  117  HIS117      0.0817
     88  ND1       12.8250   15.0590  -15.1910 N.ar  117  HIS117     -0.2268
     89  CD2       13.7250   15.1760  -17.1700 C.ar  117  HIS117      0.1154
     90  CE1       12.7610   16.3310  -15.6660 C.ar  117  HIS117      0.1986
     91  NE2       13.3950   16.4750  -16.8220 N.ar  117  HIS117     -0.2212
     92  N         23.6720   25.1770  -18.3850 N.3   128  LYS128     -0.1231
     93  CA        24.9400   24.5010  -18.1740 C.3   128  LYS128      0.1693
     94  C         24.7320   23.0750  -17.6520 C.2   128  LYS128      0.2592
     95  O         25.5460   22.1760  -17.8790 O.2   128  LYS128     -0.2718
     96  CB        25.8900   25.2430  -17.2180 C.3   128  LYS128      0.0285
     97  CG        25.3520   25.4870  -15.7950 C.3   128  LYS128      0.0035
     98  CD        26.5020   25.7150  -14.8100 C.3   128  LYS128      0.0206
     99  CE        26.6810   24.4810  -13.9240 C.3   128  LYS128      0.1093
    100  NZ        28.1320   24.2250  -13.7530 N.3   128  LYS128     -0.1314
    101  N         23.6900   22.9120  -16.7640 N.am  129  ALA129     -0.1966
    102  CA        23.4690   21.6270  -16.1360 C.3   129  ALA129      0.1728
    103  C         22.6630   20.7990  -17.1140 C.2   129  ALA129      0.2616
    104  O         21.6210   21.1940  -17.6460 O.2   129  ALA129     -0.2715
    105  CB        22.6490   21.7760  -14.8990 C.3   129  ALA129      0.0334
    106  N         23.1500   19.5320  -17.2700 N.am  130  VAL130     -0.1963
    107  CA        22.5600   18.5690  -18.1860 C.3   130  VAL130      0.1727
    108  C         21.1940   18.0770  -17.7050 C.2   130  VAL130      0.2616
    109  O         20.9550   16.8990  -17.4130 O.2   130  VAL130     -0.2715
    110  CB        23.4870   17.3670  -18.4100 C.3   130  VAL130      0.0290
    111  CG1       23.6660   16.5130  -17.1290 C.3   130  VAL130      0.0023
    112  CG2       22.9000   16.5260  -19.5520 C.3   130  VAL130      0.0023
    113  N         20.2020   18.9990  -17.7210 N.am  131  MET131     -0.1963
    114  CA        18.8840   18.6500  -17.2160 C.3   131  MET131      0.1736
    115  C         17.9160   19.8120  -17.4390 C.2   131  MET131      0.2616
    116  O         16.7080   19.6240  -17.6340 O.2   131  MET131     -0.2715
    117  CB        18.9230   18.2910  -15.7160 C.3   131  MET131      0.0427
    118  CG        19.1730   16.7850  -15.4750 C.3   131  MET131      0.0599
    119  SD        18.0460   15.9580  -14.3490 S.3   131  MET131     -0.1393
    120  CE        16.9560   15.2630  -15.5810 C.3   131  MET131      0.0692
    121  N         18.4700   21.0620  -17.2990 N.am  132  PHE132     -0.1960
    122  CA        17.6930   22.2640  -17.5430 C.3   132  PHE132      0.1756
    123  C         16.7170   22.0840  -18.7630 C.2   132  PHE132      0.2461
    124  O         16.9470   21.3840  -19.7580 O.2   132  PHE132     -0.2730
    125  CB        18.5890   23.5040  -17.6870 C.3   132  PHE132      0.0574
    126  CG        19.3390   23.5980  -18.9900 C.ar  132  PHE132     -0.0200
    127  CD1       19.7100   22.4740  -19.7240 C.ar  132  PHE132     -0.0042
    128  CD2       19.6590   24.8420  -19.5290 C.ar  132  PHE132     -0.0042
    129  CE1       20.3350   22.5850  -20.9490 C.ar  132  PHE132     -0.0003
    130  CE2       20.3230   24.9340  -20.7690 C.ar  132  PHE132     -0.0003
    131  CZ        20.6610   23.8040  -21.4910 C.ar  132  PHE132     -0.0000
    132  N         15.5110   22.7340  -18.6650 N.am  133  PRO133     -0.2716
    133  CA        14.5330   22.6340  -19.7330 C.3   133  PRO133      0.1536
    134  C         15.1050   23.1200  -21.0630 C.2   133  PRO133      0.2599
    135  O         14.9020   22.4770  -22.1060 O.2   133  PRO133     -0.2715
    136  CB        13.4300   23.5660  -19.2790 C.3   133  PRO133      0.0310
    137  CG        13.5000   23.5580  -17.7630 C.3   133  PRO133      0.0237
    138  CD        14.9580   23.3330  -17.4750 C.3   133  PRO133      0.0939
    139  N         15.7660   24.3140  -21.0490 N.am  134  THR134     -0.1937
    140  CA        16.2480   24.9310  -22.2910 C.3   134  THR134      0.2028
    141  C         17.0270   23.9000  -23.1190 C.2   134  THR134      0.2642
    142  O         17.9790   23.2360  -22.6900 O.2   134  THR134     -0.2714
    143  CB        17.2180   26.0560  -21.9320 C.3   134  THR134      0.1808
    144  OG1       16.6610   26.9030  -20.9090 O.3   134  THR134     -0.2208
    145  CG2       17.6740   26.8450  -23.1490 C.3   134  THR134      0.0379
    146  N         16.5700   23.7310  -24.3930 N.am  135  TYR135     -0.1959
    147  CA        17.1860   22.7600  -25.2910 C.3   135  TYR135      0.1771
    148  C         18.2390   23.4880  -26.1220 C.2   135  TYR135      0.2619
    149  O         18.0640   24.6090  -26.6050 O.2   135  TYR135     -0.2715
    150  CB        16.1120   22.1400  -26.1710 C.3   135  TYR135      0.0574
    151  CG        16.6630   21.2880  -27.2710 C.ar  135  TYR135     -0.0198
    152  CD1       16.9330   19.9430  -27.0500 C.ar  135  TYR135     -0.0009
    153  CD2       16.9510   21.8490  -28.5210 C.ar  135  TYR135     -0.0009
    154  CE1       17.5100   19.1900  -28.0630 C.ar  135  TYR135      0.0417
    155  CE2       17.4740   21.0690  -29.5420 C.ar  135  TYR135      0.0417
    156  CZ        17.7930   19.7550  -29.2950 C.ar  135  TYR135      0.1957
    157  OH        18.4450   19.0880  -30.2780 O.3   135  TYR135     -0.2866
    158  N         19.3890   22.7580  -26.3170 N.am  136  LYS136     -0.1977
    159  CA        20.4780   23.2740  -27.1210 C.3   136  LYS136      0.1596
    160  C         21.2440   22.0420  -27.6190 C.2   136  LYS136      0.2287
    161  O         21.9310   21.3320  -26.8790 O.2   136  LYS136     -0.2864
    162  CB        21.3550   24.1910  -26.2820 C.3   136  LYS136      0.0298
    163  CG        22.6640   24.5900  -26.9750 C.3   136  LYS136      0.0038
    164  CD        23.8190   23.6510  -26.6340 C.3   136  LYS136      0.0206
    165  CE        25.1320   24.3860  -26.5000 C.3   136  LYS136      0.1093
    166  NZ        26.2020   23.4420  -26.1200 N.3   136  LYS136     -0.1314
    167  N         23.8850   19.7380  -28.9160 N.3   138  VAL138     -0.1245
    168  CA        25.2910   19.7270  -28.5260 C.3   138  VAL138      0.1561
    169  C         25.7690   18.3010  -28.6090 C.2   138  VAL138      0.2260
    170  O         25.3550   17.4120  -27.8600 O.2   138  VAL138     -0.2867
    171  CB        25.5370   20.2860  -27.1120 C.3   138  VAL138      0.0252
    172  CG1       24.8240   19.5050  -25.9980 C.3   138  VAL138      0.0019
    173  CG2       27.0410   20.3730  -26.8420 C.3   138  VAL138      0.0019
    174  N         31.1050   17.5570  -26.6920 N.3   142  THR142     -0.1203
    175  CA        31.2070   18.5530  -25.6120 C.3   142  THR142      0.1994
    176  C         30.3290   18.3080  -24.3630 C.2   142  THR142      0.2618
    177  O         30.3500   19.0860  -23.4020 O.2   142  THR142     -0.2717
    178  CB        30.8570   19.9420  -26.1490 C.3   142  THR142      0.1784
    179  OG1       29.7040   19.9280  -26.9940 O.3   142  THR142     -0.2211
    180  CG2       31.9740   20.4880  -27.0060 C.3   142  THR142      0.0376
    181  N         29.5370   17.1970  -24.3960 N.am  143  PHE143     -0.1961
    182  CA        28.6670   16.7850  -23.2960 C.3   143  PHE143      0.1771
    183  C         29.5710   16.4660  -22.0830 C.2   143  PHE143      0.2619
    184  O         30.1850   15.4150  -21.8680 O.2   143  PHE143     -0.2715
    185  CB        27.8480   15.5700  -23.6880 C.3   143  PHE143      0.0574
    186  CG        27.2200   14.9110  -22.5000 C.ar  143  PHE143     -0.0200
    187  CD1       25.9970   15.3590  -22.0370 C.ar  143  PHE143     -0.0042
    188  CD2       27.8950   13.8490  -21.8480 C.ar  143  PHE143     -0.0042
    189  CE1       25.4700   14.7120  -20.9320 C.ar  143  PHE143     -0.0003
    190  CE2       27.3690   13.2460  -20.7180 C.ar  143  PHE143     -0.0003
    191  CZ        26.1460   13.6810  -20.2570 C.ar  143  PHE143     -0.0000
    192  N         29.7280   17.5340  -21.2460 N.am  144  ARG144     -0.1977
    193  CA        30.5170   17.4050  -20.0440 C.3   144  ARG144      0.1597
    194  C         29.6060   17.8140  -18.8840 C.2   144  ARG144      0.2287
    195  O         28.7060   18.6540  -18.9750 O.2   144  ARG144     -0.2864
    196  CB        31.7380   18.2950  -20.1150 C.3   144  ARG144      0.0334
    197  CG        32.5790   18.2230  -18.8330 C.3   144  ARG144      0.0492
    198  CD        32.3110   19.4450  -17.9460 C.3   144  ARG144      0.2205
    199  NE        32.6880   19.2100  -16.5510 N.pl3 144  ARG144     -0.0865
    200  CZ        33.9110   18.9800  -16.0930 C.cat 144  ARG144      0.5346
    201  NH1       34.9740   18.9950  -16.9010 N.pl3 144  ARG144      0.1354
    202  NH2       34.0850   18.7130  -14.7940 N.pl3 144  ARG144      0.1354
@<TRIPOS>BOND
     1   157   156    1
     2    27    25    1
     3   155   156   ar
     4   155   153   ar
     5    15    14    2
     6   156   154   ar
     7   167   168    1
     8    12    13    1
     9   169   168    1
    10   169   170    2
    11   168   171    1
    12   153   151   ar
    13    25    26    1
    14    25    24    1
    15    14    13    1
    16    14    20   am
    17   154   152   ar
    18    21    24    1
    19    21    20    1
    20    21    22    1
    21    23    22    2
    22   160   159    1
    23   160   161    2
    24    13    16    1
    25    17    19    1
    26    17    16    1
    27   151   152   ar
    28   151   150    1
    29    22    28   am
    30    55    53    1
    31   159   158    1
    32   159   162    1
    33   171   173    1
    34   171   172    1
    35    61    60    1
    36   180   178    1
    37   179   178    1
    38   163   164    1
    39   163   162    1
    40    16    18    1
    41   174   175    1
    42   164   165    1
    43   149   148    2
    44   165   166    1
    45   158   148   am
    46   150   147    1
    47   178   175    1
    48   148   147    1
    49    52    53    1
    50    52    49    1
    51    53    54    1
    52    60    62    1
    53    60    57    1
    54    48    49    1
    55    28    29    1
    56   175   176    1
    57     4     3    2
    58   147   146    1
    59    56    57    1
    60    56    50   am
    61    49    50    1
    62    29    32    1
    63    29    30    1
    64    57    58    1
    65     3     2    1
    66    50    51    2
    67   181   176   am
    68   181   182    1
    69   146   141   am
    70   176   177    2
    71    58    59    2
    72   185   182    1
    73   185   186    1
    74    30    31    2
    75    30    33   am
    76     2     1    1
    77     2     5    1
    78   182   183    1
    79     5     6    1
    80   145   143    1
    81   141   142    2
    82   141   140    1
    83    33    34    1
    84     8     6   ar
    85     8    10   ar
    86   186   187   ar
    87   186   188   ar
    88   140   143    1
    89   140   139    1
    90    40    42   ar
    91    40    38   ar
    92     6     7   ar
    93    78    79    1
    94    78    77    1
    95   135   134    2
    96   183   184    2
    97   183   192   am
    98    42    41   ar
    99   187   189   ar
   100   143   144    1
   101   188   190   ar
   102    81    79   ar
   103    10    11   ar
   104    79    80   ar
   105    38    37    1
   106    38    39   ar
   107   131   129   ar
   108   131   130   ar
   109    34    37    1
   110    34    35    1
   111    41    39   ar
   112   192   193    1
   113    36    35    2
   114    77    74    1
   115   134   139   am
   116   134   133    1
   117   129   127   ar
   118   189   191   ar
   119     7     9   ar
   120   130   128   ar
   121   190   191   ar
   122    67    68    1
   123    67    64    1
   124    35    43   am
   125    69    68   ar
   126    69    71   ar
   127    11     9   ar
   128    63    64    1
   129    73    74    1
   130    73    65   am
   131   196   193    1
   132   196   197    1
   133    68    70   ar
   134   193   194    1
   135    74    75    1
   136    71    72   ar
   137   124   123    2
   138   133   136    1
   139   133   132    1
   140   127   126   ar
   141    64    65    1
   142   112   110    1
   143   128   126   ar
   144    43    44    1
   145   136   137    1
   146    65    66    2
   147   126   125    1
   148   195   194    2
   149    70    72   ar
   150   197   198    1
   151   123   132   am
   152   123   122    1
   153    75    76    2
   154   132   138    1
   155    44    47    1
   156    44    45    1
   157   110   107    1
   158   110   111    1
   159    92    93    1
   160   107   108    1
   161   107   106    1
   162    93    94    1
   163    93    96    1
   164   198   199    1
   165    95    94    2
   166   137   138    1
   167   113   108   am
   168   113   114    1
   169   108   109    2
   170   125   122    1
   171    94   101   am
   172   104   103    2
   173   116   115    2
   174   122   121    1
   175   115   121   am
   176   115   114    1
   177   106   103   am
   178    45    46    2
   179    96    97    1
   180   114   117    1
   181    89    91   ar
   182    89    87   ar
   183   103   102    1
   184   201   200    1
   185    91    90   ar
   186   101   102    1
   187   199   200    2
   188   102   105    1
   189    87    86    1
   190    87    88   ar
   191   200   202    1
   192    86    83    1
   193    97    98    1
   194   117   118    1
   195    90    88   ar
   196   120   119    1
   197   118   119    1
   198    82    83    1
   199    98    99    1
   200    83    84    1
   201    84    85    2
   202    99   100    1
