@<TRIPOS>MOLECULE
tmp/2z2pB00.pdb
 190 181 0 0 0
SMALL
GASTEIGER

@<TRIPOS>ATOM
      1  N        -31.9690   28.9590  -20.4270 N.3    17  TYR17      -0.1241
      2  CA       -31.7240   27.6270  -20.9780 C.3    17  TYR17       0.1605
      3  C        -32.9800   26.9350  -21.4890 C.2    17  TYR17       0.2264
      4  O        -33.0310   26.5080  -22.6440 O.2    17  TYR17      -0.2867
      5  CB       -31.0070   26.7510  -19.9380 C.3    17  TYR17       0.0534
      6  CG       -30.5640   25.3910  -20.4350 C.ar   17  TYR17      -0.0201
      7  CD1      -29.4060   25.2480  -21.2030 C.ar   17  TYR17      -0.0009
      8  CD2      -31.2870   24.2410  -20.1180 C.ar   17  TYR17      -0.0009
      9  CE1      -28.9930   23.9990  -21.6570 C.ar   17  TYR17       0.0417
     10  CE2      -30.8780   22.9850  -20.5670 C.ar   17  TYR17       0.0417
     11  CZ       -29.7350   22.8800  -21.3360 C.ar   17  TYR17       0.1957
     12  OH       -29.3310   21.6490  -21.7740 O.3    17  TYR17      -0.2866
     13  N        -29.9020   28.6640  -15.1210 N.3    32  HIS32      -0.1241
     14  CA       -29.1330   27.7010  -14.3240 C.3    32  HIS32       0.1621
     15  C        -27.9480   28.2870  -13.5450 C.2    32  HIS32       0.2264
     16  O        -27.4370   27.6530  -12.6210 O.2    32  HIS32      -0.2867
     17  CB       -28.6860   26.5060  -15.1790 C.3    32  HIS32       0.0745
     18  CG       -27.6430   26.8410  -16.2000 C.ar   32  HIS32       0.0817
     19  ND1      -26.2920   26.7400  -15.9430 N.ar   32  HIS32      -0.2268
     20  CD2      -27.7520   27.2690  -17.4790 C.ar   32  HIS32       0.1154
     21  CE1      -25.6140   27.0980  -17.0190 C.ar   32  HIS32       0.1986
     22  NE2      -26.4780   27.4210  -17.9650 N.ar   32  HIS32      -0.2212
     23  N        -28.8890   23.8270  -10.5990 N.3    57  LYS57      -0.1245
     24  CA       -28.6930   23.6680  -12.0460 C.3    57  LYS57       0.1561
     25  C        -30.0090   23.4000  -12.7850 C.2    57  LYS57       0.2260
     26  O        -30.1970   22.3500  -13.4090 O.2    57  LYS57      -0.2867
     27  CB       -27.6400   22.5950  -12.3480 C.3    57  LYS57       0.0271
     28  CG       -26.9600   22.7480  -13.6930 C.3    57  LYS57       0.0035
     29  CD       -25.7660   21.8230  -13.7960 C.3    57  LYS57       0.0206
     30  CE       -25.2490   21.7670  -15.2170 C.3    57  LYS57       0.1093
     31  NZ       -24.3880   20.5740  -15.4230 N.3    57  LYS57      -0.1314
     32  N        -32.6410   22.9630  -15.3160 N.3    59  MET59      -0.1245
     33  CA       -32.5330   22.6500  -16.7450 C.3    59  MET59       0.1570
     34  C        -33.8430   22.8550  -17.5210 C.2    59  MET59       0.2261
     35  O        -34.1770   23.9860  -17.8930 O.2    59  MET59      -0.2867
     36  CB       -31.9530   21.2450  -16.9630 C.3    59  MET59       0.0387
     37  CG       -30.5320   21.0480  -16.4310 C.3    59  MET59       0.0595
     38  SD       -29.1870   21.6660  -17.4760 S.3    59  MET59      -0.1393
     39  CE       -29.2230   23.4270  -17.1600 C.3    59  MET59       0.0692
     40  N        -31.0020   19.5760  -11.9400 N.3    74  ASN74      -0.1240
     41  CA       -30.0130   18.6030  -12.3990 C.3    74  ASN74       0.1653
     42  C        -28.9670   18.2150  -11.3640 C.2    74  ASN74       0.2266
     43  O        -28.5490   17.0600  -11.3110 O.2    74  ASN74      -0.2867
     44  CB       -29.3190   19.1050  -13.6680 C.3    74  ASN74       0.1155
     45  CG       -28.4640   18.0370  -14.3310 C.2    74  ASN74       0.2627
     46  OD1      -28.9430   16.9470  -14.6440 O.2    74  ASN74      -0.2716
     47  ND2      -27.1920   18.3540  -14.5570 N.am   74  ASN74      -0.0877
     48  N        -33.3750   15.7530  -15.9330 N.3   101  TYR101     -0.1241
     49  CA       -33.1620   16.7120  -17.0220 C.3   101  TYR101      0.1605
     50  C        -34.4510   17.1390  -17.7430 C.2   101  TYR101      0.2264
     51  O        -35.0080   18.1960  -17.4350 O.2   101  TYR101     -0.2867
     52  CB       -32.1030   16.2120  -18.0170 C.3   101  TYR101      0.0534
     53  CG       -31.8420   17.1890  -19.1480 C.ar  101  TYR101     -0.0201
     54  CD1      -31.1050   18.3600  -18.9370 C.ar  101  TYR101     -0.0009
     55  CD2      -32.3480   16.9540  -20.4280 C.ar  101  TYR101     -0.0009
     56  CE1      -30.8750   19.2650  -19.9800 C.ar  101  TYR101      0.0417
     57  CE2      -32.1250   17.8460  -21.4700 C.ar  101  TYR101      0.0417
     58  CZ       -31.3900   18.9940  -21.2380 C.ar  101  TYR101      0.1957
     59  OH       -31.1800   19.8610  -22.2780 O.3   101  TYR101     -0.2866
     60  N        -30.5940   11.2460  -16.1390 N.3   116  MET116     -0.1245
     61  CA       -29.4130   10.9370  -16.9360 C.3   116  MET116      0.1570
     62  C        -28.4580    9.9630  -16.2430 C.2   116  MET116      0.2261
     63  O        -28.2320    8.8600  -16.7470 O.2   116  MET116     -0.2867
     64  CB       -28.6950   12.2260  -17.3300 C.3   116  MET116      0.0387
     65  CG       -29.5810   13.1800  -18.0880 C.3   116  MET116      0.0595
     66  SD       -28.6620   14.5090  -18.8510 S.3   116  MET116     -0.1393
     67  CE       -29.5130   14.6400  -20.3960 C.3   116  MET116      0.0692
     68  N        -28.1830    7.4700  -21.0510 N.3   141  TYR141     -0.1241
     69  CA       -28.1410    8.9290  -20.9030 C.3   141  TYR141      0.1605
     70  C        -29.3920    9.5710  -21.5150 C.2   141  TYR141      0.2264
     71  O        -29.3000   10.2720  -22.5300 O.2   141  TYR141     -0.2867
     72  CB       -26.8530    9.4900  -21.5300 C.3   141  TYR141      0.0534
     73  CG       -26.1700   10.5950  -20.7500 C.ar  141  TYR141     -0.0201
     74  CD1      -25.7590   10.3990  -19.4280 C.ar  141  TYR141     -0.0009
     75  CD2      -25.9000   11.8250  -21.3460 C.ar  141  TYR141     -0.0009
     76  CE1      -25.1270   11.4100  -18.7140 C.ar  141  TYR141      0.0417
     77  CE2      -25.2670   12.8420  -20.6420 C.ar  141  TYR141      0.0417
     78  CZ       -24.8830   12.6280  -19.3260 C.ar  141  TYR141      0.1957
     79  OH       -24.2550   13.6350  -18.6260 O.3   141  TYR141     -0.2866
     80  N        -32.4700   12.0900  -22.2000 N.3   143  SER143     -0.1217
     81  CA       -32.4280   13.5510  -22.1680 C.3   143  SER143      0.1889
     82  C        -33.8070   14.2110  -22.2580 C.2   143  SER143      0.2288
     83  O        -34.5310   14.2840  -21.2640 O.2   143  SER143     -0.2866
     84  CB       -31.4910   14.0660  -23.2550 C.3   143  SER143      0.2089
     85  OG       -30.2520   13.3840  -23.1880 O.3   143  SER143     -0.2183
     86  N        -29.2270    9.7160  -25.6430 N.3   158  ASN158     -0.1225
     87  CA       -27.9910   10.3160  -26.1520 C.3   158  ASN158      0.1785
     88  C        -26.8090    9.3610  -26.3830 C.2   158  ASN158      0.2597
     89  O        -26.1600    9.4230  -27.4330 O.2   158  ASN158     -0.2718
     90  CB       -27.5800   11.5020  -25.2760 C.3   158  ASN158      0.1169
     91  CG       -26.5260   12.3690  -25.9300 C.2   158  ASN158      0.2627
     92  OD1      -25.3310   12.0950  -25.8300 O.2   158  ASN158     -0.2716
     93  ND2      -26.9620   13.4230  -26.6050 N.am  158  ASN158     -0.0877
     94  N        -26.5360    8.4910  -25.4110 N.am  159  GLN159     -0.1979
     95  CA       -25.4450    7.5140  -25.5210 C.3   159  GLN159      0.1601
     96  C        -25.8630    6.2690  -26.2960 C.2   159  GLN159      0.2287
     97  O        -25.0670    5.7120  -27.0540 O.2   159  GLN159     -0.2864
     98  CB       -24.9460    7.0790  -24.1440 C.3   159  GLN159      0.0394
     99  CG       -24.4820    8.1980  -23.2330 C.3   159  GLN159      0.0908
    100  CD       -23.1750    8.8210  -23.6660 C.2   159  GLN159      0.2608
    101  OE1      -23.1540    9.9470  -24.1570 O.2   159  GLN159     -0.2717
    102  NE2      -22.0740    8.0980  -23.4800 N.am  159  GLN159     -0.0878
    103  N        -30.6150   14.5910  -29.1550 N.3   185  VAL185     -0.1245
    104  CA       -30.9030   15.4550  -28.0120 C.3   185  VAL185      0.1561
    105  C        -32.3800   15.8720  -27.9700 C.2   185  VAL185      0.2260
    106  O        -33.1940   15.2190  -27.3080 O.2   185  VAL185     -0.2867
    107  CB       -29.9450   16.6790  -27.9350 C.3   185  VAL185      0.0252
    108  CG1      -30.1350   17.4250  -26.6240 C.3   185  VAL185      0.0019
    109  CG2      -28.4840   16.2450  -28.0720 C.3   185  VAL185      0.0019
    110  N        -27.0910   15.7570  -32.4290 N.3   200  ILE200     -0.1231
    111  CA       -26.0050   16.7140  -32.1880 C.3   200  ILE200      0.1692
    112  C        -24.7120   16.3180  -32.8950 C.2   200  ILE200      0.2591
    113  O        -23.9400   17.1840  -33.3010 O.2   200  ILE200     -0.2718
    114  CB       -25.7760   17.0350  -30.6810 C.3   200  ILE200      0.0266
    115  CG1      -25.0560   18.3820  -30.5390 C.3   200  ILE200      0.0019
    116  CG2      -25.0150   15.9170  -29.9660 C.3   200  ILE200      0.0020
    117  CD1      -25.4370   19.1820  -29.3130 C.3   200  ILE200      0.0001
    118  N        -24.4970   15.0160  -33.0700 N.am  201  ILE201     -0.1980
    119  CA       -23.2840   14.5300  -33.7150 C.3   201  ILE201      0.1595
    120  C        -23.5150   14.2280  -35.1900 C.2   201  ILE201      0.2287
    121  O        -22.7840   14.7300  -36.0430 O.2   201  ILE201     -0.2864
    122  CB       -22.6800   13.3090  -32.9760 C.3   201  ILE201      0.0276
    123  CG1      -22.0780   13.7280  -31.6220 C.3   201  ILE201      0.0022
    124  CG2      -21.6630   12.5770  -33.8560 C.3   201  ILE201      0.0022
    125  CD1      -21.0320   14.8420  -31.6890 C.3   201  ILE201      0.0001
    126  N        -24.4200   21.3330  -34.6290 N.3   225  ARG225     -0.1245
    127  CA       -24.6920   20.9250  -33.2420 C.3   225  ARG225      0.1563
    128  C        -26.0590   21.3730  -32.6840 C.2   225  ARG225      0.2260
    129  O        -26.1290   22.2810  -31.8490 O.2   225  ARG225     -0.2867
    130  CB       -23.5290   21.3010  -32.3070 C.3   225  ARG225      0.0307
    131  CG       -22.3130   20.4170  -32.4940 C.3   225  ARG225      0.0489
    132  CD       -21.2430   20.6900  -31.4720 C.3   225  ARG225      0.2205
    133  NE       -20.1210   19.7670  -31.6310 N.pl3 225  ARG225     -0.0865
    134  CZ       -19.8740   18.7210  -30.8420 C.cat 225  ARG225      0.5346
    135  NH1      -20.6640   18.4500  -29.8080 N.pl3 225  ARG225      0.1354
    136  NH2      -18.8240   17.9460  -31.0820 N.pl3 225  ARG225      0.1354
    137  N        -29.5700   21.3640  -30.5540 N.3   227  HIS227     -0.1241
    138  CA       -29.9040   21.0720  -29.1620 C.3   227  HIS227      0.1621
    139  C        -31.3980   20.7970  -28.9860 C.2   227  HIS227      0.2264
    140  O        -31.7870   19.6690  -28.6740 O.2   227  HIS227     -0.2867
    141  CB       -29.4380   22.2180  -28.2550 C.3   227  HIS227      0.0745
    142  CG       -29.9340   22.1270  -26.8460 C.ar  227  HIS227      0.0817
    143  ND1      -29.4020   21.2530  -25.9220 N.ar  227  HIS227     -0.2268
    144  CD2      -30.9000   22.8170  -26.1950 C.ar  227  HIS227      0.1154
    145  CE1      -30.0260   21.4020  -24.7670 C.ar  227  HIS227      0.1986
    146  NE2      -30.9380   22.3450  -24.9050 N.ar  227  HIS227     -0.2212
    147  N        -26.8720   25.2490  -31.8300 N.3   242  TRP242     -0.1241
    148  CA       -25.9390   25.7350  -30.8180 C.3   242  TRP242      0.1605
    149  C        -24.5290   26.0310  -31.3470 C.2   242  TRP242      0.2264
    150  O        -23.9920   27.1130  -31.1110 O.2   242  TRP242     -0.2867
    151  CB       -25.8920   24.7480  -29.6490 C.3   242  TRP242      0.0550
    152  CG       -24.8770   25.0760  -28.6100 C.ar  242  TRP242      0.0003
    153  CD1      -25.0110   25.9660  -27.5910 C.ar  242  TRP242      0.0946
    154  CD2      -23.5710   24.5010  -28.4750 C.ar  242  TRP242      0.0152
    155  NE1      -23.8700   25.9880  -26.8270 N.ar  242  TRP242     -0.2442
    156  CE2      -22.9680   25.0990  -27.3490 C.ar  242  TRP242      0.0810
    157  CE3      -22.8530   23.5360  -29.1980 C.ar  242  TRP242      0.0012
    158  CZ2      -21.6810   24.7740  -26.9260 C.ar  242  TRP242      0.0191
    159  CZ3      -21.5710   23.2120  -28.7770 C.ar  242  TRP242      0.0001
    160  CH2      -20.9980   23.8330  -27.6490 C.ar  242  TRP242      0.0015
    161  N        -25.1040   30.8560  -27.9630 N.3   267  GLU267     -0.1231
    162  CA       -25.4990   29.5690  -27.3630 C.3   267  GLU267      0.1684
    163  C        -27.0080   29.3160  -27.2710 C.2   267  GLU267      0.2434
    164  O        -27.5590   29.2390  -26.1730 O.2   267  GLU267     -0.2733
    165  CB       -24.8140   29.3150  -26.0170 C.3   267  GLU267      0.0402
    166  CG       -23.3020   29.2170  -26.1080 C.3   267  GLU267      0.1161
    167  CD       -22.6810   28.6010  -24.8800 C.2   267  GLU267      0.3649
    168  OE1      -22.9420   27.4140  -24.5920 O.co2 267  GLU267     -0.2457
    169  OE2      -21.9180   29.3030  -24.1990 O.co2 267  GLU267     -0.2457
    170  N        -27.6820   29.1730  -28.4260 N.am  268  PRO268     -0.2718
    171  CA       -29.1170   28.9350  -28.3690 C.3   268  PRO268      0.1535
    172  C        -29.4260   27.5720  -27.7570 C.2   268  PRO268      0.2598
    173  O        -28.7880   26.5770  -28.1020 O.2   268  PRO268     -0.2715
    174  CB       -29.5560   29.0120  -29.8390 C.3   268  PRO268      0.0310
    175  CG       -28.3460   28.7370  -30.6270 C.3   268  PRO268      0.0237
    176  CD       -27.1830   29.2230  -29.8150 C.3   268  PRO268      0.0939
    177  N        -30.3890   27.5520  -26.8390 N.am  269  ALA269     -0.1978
    178  CA       -30.7500   26.3540  -26.0940 C.3   269  ALA269      0.1597
    179  C        -32.2030   25.9520  -26.3570 C.2   269  ALA269      0.2287
    180  O        -32.5250   25.5110  -27.4610 O.2   269  ALA269     -0.2864
    181  CB       -30.4940   26.5660  -24.6110 C.3   269  ALA269      0.0319
    182  N        -28.1600   30.9970  -23.9480 N.3   283  GLU283     -0.1245
    183  CA       -27.4130   30.9400  -22.6900 C.3   283  GLU283      0.1567
    184  C        -26.6050   32.2040  -22.4030 C.2   283  GLU283      0.2260
    185  O        -26.4070   32.5740  -21.2400 O.2   283  GLU283     -0.2867
    186  CB       -26.5050   29.7080  -22.6550 C.3   283  GLU283      0.0388
    187  CG       -26.0470   29.3270  -21.2550 C.3   283  GLU283      0.1160
    188  CD       -25.2260   28.0540  -21.2190 C.2   283  GLU283      0.3649
    189  OE1      -24.5170   27.7510  -22.2050 O.co2 283  GLU283     -0.2457
    190  OE2      -25.2800   27.3530  -20.1900 O.co2 283  GLU283     -0.2457
@<TRIPOS>BOND
     1   121   120    2
     2   120   119    1
     3   126   127    1
     4   124   122    1
     5   119   118    1
     6   119   122    1
     7   113   112    2
     8   127   128    1
     9   127   130    1
    10   118   112   am
    11   122   123    1
    12   112   111    1
    13   128   129    2
    14   131   130    1
    15   131   132    1
    16   110   111    1
    17   111   114    1
    18   147   148    1
    19   125   123    1
    20   133   132    1
    21   133   134    2
    22   149   150    2
    23   149   148    1
    24   136   134    1
    25   134   135    1
    26   148   151    1
    27   114   115    1
    28   114   116    1
    29   175   174    1
    30   175   176    1
    31   137   138    1
    32   115   117    1
    33   174   171    1
    34   176   170    1
    35   151   152    1
    36   157   159   ar
    37   157   154   ar
    38   138   139    1
    39   138   141    1
    40   103   104    1
    41   139   140    2
    42   159   160   ar
    43   152   154   ar
    44   152   153   ar
    45   154   156   ar
    46   170   171    1
    47   170   163   am
    48   171   172    1
    49   141   142    1
    50   173   172    2
    51   109   107    1
    52   104   105    1
    53   104   107    1
    54   105   106    2
    55   161   162    1
    56   107   108    1
    57   172   177   am
    58   160   158   ar
    59   153   155   ar
    60   180   179    2
    61    89    88    2
    62   162   163    1
    63   162   165    1
    64   156   158   ar
    65   156   155   ar
    66   163   164    2
    67    97    96    2
    68   142   144   ar
    69   142   143   ar
    70   177   178    1
    71    93    91   am
    72    88    87    1
    73    88    94   am
    74   179   178    1
    75    96    95    1
    76   144   146   ar
    77    87    86    1
    78    87    90    1
    79   166   165    1
    80   166   167    1
    81   178   181    1
    82    91    92    2
    83    91    90    1
    84   143   145   ar
    85    95    94    1
    86    95    98    1
    87   146   145   ar
    88   167   168   ar
    89   167   169   ar
    90   101   100    2
    91    98    99    1
    92   182   183    1
    93   100   102   am
    94   100    99    1
    95    84    85    1
    96    84    81    1
    97   183   186    1
    98   183   184    1
    99   186   187    1
   100     4     3    2
   101    71    70    2
   102   184   185    2
   103    59    58    1
   104    82    81    1
   105    82    83    2
   106   189   188   ar
   107    80    81    1
   108    12    11    1
   109     9    11   ar
   110     9     7   ar
   111    72    69    1
   112    72    73    1
   113    70    69    1
   114     3     2    1
   115    57    58   ar
   116    57    55   ar
   117    75    73   ar
   118    75    77   ar
   119    11    10   ar
   120   187   188    1
   121    58    56   ar
   122   188   190   ar
   123     7     6   ar
   124    68    69    1
   125     2     1    1
   126     2     5    1
   127    73    74   ar
   128    77    78   ar
   129    10     8   ar
   130     6     8   ar
   131     6     5    1
   132    55    53   ar
   133    67    66    1
   134    56    54   ar
   135    74    76   ar
   136    78    76   ar
   137    78    79    1
   138    53    54   ar
   139    53    52    1
   140    66    65    1
   141    65    64    1
   142    52    49    1
   143    22    20   ar
   144    22    21   ar
   145    35    34    2
   146    50    51    2
   147    50    49    1
   148    34    33    1
   149    20    18   ar
   150    38    39    1
   151    38    37    1
   152    64    61    1
   153    49    48    1
   154    21    19   ar
   155    36    33    1
   156    36    37    1
   157    61    62    1
   158    61    60    1
   159    63    62    2
   160    33    32    1
   161    18    19   ar
   162    18    17    1
   163    31    30    1
   164    30    29    1
   165    17    14    1
   166    13    14    1
   167    46    45    2
   168    47    45   am
   169    45    44    1
   170    14    15    1
   171    29    28    1
   172    28    27    1
   173    44    41    1
   174    15    16    2
   175    26    25    2
   176    25    24    1
   177    41    40    1
   178    41    42    1
   179    27    24    1
   180    24    23    1
   181    42    43    2
