@<TRIPOS>MOLECULE
tmp/2z2pA03.pdb
 78 74 0 0 0
SMALL
GASTEIGER

@<TRIPOS>ATOM
      1  N        -14.8520   23.2650  -27.5130 N.3   107  PRO107     -0.2102
      2  CA       -16.2310   23.1800  -27.0300 C.3   107  PRO107      0.1504
      3  C        -17.2410   23.0310  -28.1690 C.2   107  PRO107      0.2575
      4  O        -18.3110   22.4590  -27.9590 O.2   107  PRO107     -0.2718
      5  CB       -16.4470   24.5190  -26.3060 C.3   107  PRO107      0.0282
      6  CG       -15.1030   25.1270  -26.1540 C.3   107  PRO107      0.0208
      7  CD       -14.2680   24.5950  -27.2690 C.3   107  PRO107      0.0893
      8  N        -16.8970   23.5370  -29.3550 N.am  108  ASN108     -0.1975
      9  CA       -17.7720   23.4480  -30.5340 C.3   108  ASN108      0.1688
     10  C        -17.5120   22.2080  -31.3930 C.2   108  ASN108      0.2292
     11  O        -18.1940   21.9860  -32.3920 O.2   108  ASN108     -0.2864
     12  CB       -17.6550   24.7090  -31.4000 C.3   108  ASN108      0.1181
     13  CG       -16.4090   24.7070  -32.2740 C.2   108  ASN108      0.2629
     14  OD1      -15.3460   24.2470  -31.8570 O.2   108  ASN108     -0.2716
     15  ND2      -16.5360   25.2230  -33.4920 N.am  108  ASN108     -0.0877
     16  N        -12.8580   23.8810  -17.3390 N.3   149  SER149     -0.1202
     17  CA       -14.2460   24.0320  -16.9110 C.3   149  SER149      0.2020
     18  C        -14.8760   25.3430  -17.3910 C.2   149  SER149      0.2619
     19  O        -16.1010   25.4630  -17.4450 O.2   149  SER149     -0.2717
     20  CB       -14.3540   23.9060  -15.3910 C.3   149  SER149      0.2103
     21  OG       -13.5490   24.8620  -14.7220 O.3   149  SER149     -0.2182
     22  N        -14.0310   26.3090  -17.7500 N.am  150  ASP150     -0.1959
     23  CA       -14.4820   27.6000  -18.2770 C.3   150  ASP150      0.1840
     24  C        -14.5360   27.6300  -19.8140 C.2   150  ASP150      0.2622
     25  O        -14.6830   28.6950  -20.4190 O.2   150  ASP150     -0.2715
     26  CB       -13.6110   28.7450  -17.7310 C.3   150  ASP150      0.1450
     27  CG       -12.1220   28.5700  -18.0380 C.2   150  ASP150      0.3671
     28  OD1      -11.7290   27.6130  -18.7410 O.co2 150  ASP150     -0.2456
     29  OD2      -11.3340   29.4070  -17.5610 O.co2 150  ASP150     -0.2456
     30  N        -14.4040   26.4540  -20.4280 N.am  151  ASN151     -0.1972
     31  CA       -14.5790   26.2800  -21.8770 C.3   151  ASN151      0.1688
     32  C        -13.5440   27.0090  -22.7430 C.2   151  ASN151      0.2292
     33  O        -13.7260   27.1890  -23.9570 O.2   151  ASN151     -0.2864
     34  CB       -16.0090   26.6440  -22.2980 C.3   151  ASN151      0.1181
     35  CG       -17.0610   25.8230  -21.5670 C.2   151  ASN151      0.2629
     36  OD1      -17.1410   24.6050  -21.7410 O.2   151  ASN151     -0.2716
     37  ND2      -17.8740   26.4870  -20.7500 N.am  151  ASN151     -0.0877
     38  N         -4.0330   30.4000  -21.2910 N.3   165  ARG165     -0.1245
     39  CA        -5.4780   30.2830  -21.4720 C.3   165  ARG165      0.1563
     40  C         -5.9020   30.9260  -22.7830 C.2   165  ARG165      0.2260
     41  O         -5.5820   32.0880  -23.0460 O.2   165  ARG165     -0.2867
     42  CB        -6.2360   30.9370  -20.3120 C.3   165  ARG165      0.0307
     43  CG        -7.7350   30.6180  -20.3060 C.3   165  ARG165      0.0489
     44  CD        -8.4710   31.3090  -19.1650 C.3   165  ARG165      0.2205
     45  NE        -9.2400   32.4680  -19.6150 N.pl3 165  ARG165     -0.0865
     46  CZ       -10.5570   32.4720  -19.7980 C.cat 165  ARG165      0.5346
     47  NH1      -11.2690   31.3750  -19.5780 N.pl3 165  ARG165      0.1354
     48  NH2      -11.1670   33.5760  -20.2020 N.pl3 165  ARG165      0.1354
     49  N         -9.4420   31.3780  -25.1520 N.3   167  THR167     -0.1203
     50  CA       -10.8710   31.2060  -25.3580 C.3   167  THR167      0.1994
     51  C        -11.1830   31.1510  -26.8570 C.2   167  THR167      0.2618
     52  O        -10.2760   31.2180  -27.6890 O.2   167  THR167     -0.2717
     53  CB       -11.6830   32.3180  -24.6600 C.3   167  THR167      0.1784
     54  OG1      -11.5880   33.5290  -25.4110 O.3   167  THR167     -0.2211
     55  CG2      -11.1540   32.5800  -23.2710 C.3   167  THR167      0.0376
     56  N        -12.4690   31.0440  -27.1840 N.am  168  GLU168     -0.1965
     57  CA       -12.9480   30.8430  -28.5540 C.3   168  GLU168      0.1733
     58  C        -12.5320   31.9330  -29.5350 C.2   168  GLU168      0.2617
     59  O        -12.3090   31.6580  -30.7150 O.2   168  GLU168     -0.2715
     60  CB       -14.4730   30.6960  -28.5460 C.3   168  GLU168      0.0429
     61  CG       -15.1830   30.9370  -29.8890 C.3   168  GLU168      0.1163
     62  CD       -15.0640   29.7690  -30.8490 C.2   168  GLU168      0.3649
     63  OE1      -15.2430   29.9930  -32.0620 O.co2 168  GLU168     -0.2457
     64  OE2      -14.8010   28.6310  -30.3980 O.co2 168  GLU168     -0.2457
     65  N        -12.4410   33.1690  -29.0520 N.am  169  SER169     -0.1950
     66  CA       -12.0970   34.2980  -29.9210 C.3   169  SER169      0.1924
     67  C        -10.5910   34.5620  -29.9920 C.2   169  SER169      0.2314
     68  O        -10.1650   35.6470  -30.3870 O.2   169  SER169     -0.2863
     69  CB       -12.8830   35.5650  -29.5460 C.3   169  SER169      0.2116
     70  OG       -12.6950   35.9270  -28.1910 O.3   169  SER169     -0.2180
     71  N         -8.4450   35.1090  -27.7960 N.3   171  ASP171     -0.1239
     72  CA        -7.8800   35.9030  -26.7110 C.3   171  ASP171      0.1674
     73  C         -7.0100   35.0190  -25.8100 C.2   171  ASP171      0.2266
     74  O         -7.4940   34.0710  -25.1840 O.2   171  ASP171     -0.2867
     75  CB        -8.9570   36.6970  -25.9340 C.3   171  ASP171      0.1410
     76  CG       -10.3870   36.2180  -26.2160 C.2   171  ASP171      0.3668
     77  OD1      -11.3480   36.9880  -25.9740 O.co2 171  ASP171     -0.2456
     78  OD2      -10.5630   35.0740  -26.6830 O.co2 171  ASP171     -0.2456
@<TRIPOS>BOND
     1    15    13   am
     2    11    10    2
     3    13    14    2
     4    13    12    1
     5    63    62   ar
     6    12     9    1
     7    10     9    1
     8    62    64   ar
     9    62    61    1
    10    59    58    2
    11     9     8    1
    12    68    67    2
    13    67    66    1
    14    66    69    1
    15    66    65    1
    16    61    60    1
    17    69    70    1
    18    58    65   am
    19    58    57    1
    20     8     3   am
    21    57    60    1
    22    57    56    1
    23     3     4    2
    24     3     2    1
    25    71    72    1
    26    52    51    2
    27     1     7    1
    28     1     2    1
    29     7     6    1
    30    56    51   am
    31     2     5    1
    32    51    50    1
    33    72    75    1
    34    72    73    1
    35    78    76   ar
    36     5     6    1
    37    76    77   ar
    38    76    75    1
    39    73    74    2
    40    54    53    1
    41    50    49    1
    42    50    53    1
    43    53    55    1
    44    33    32    2
    45    41    40    2
    46    40    39    1
    47    32    31    1
    48    34    31    1
    49    34    35    1
    50    31    30    1
    51    36    35    2
    52    35    37   am
    53    39    38    1
    54    39    42    1
    55    30    24   am
    56    25    24    2
    57    42    43    1
    58    43    44    1
    59    48    46    1
    60    24    23    1
    61    46    45    2
    62    46    47    1
    63    45    44    1
    64    28    27   ar
    65    23    22    1
    66    23    26    1
    67    27    26    1
    68    27    29   ar
    69    22    18   am
    70    19    18    2
    71    18    17    1
    72    16    17    1
    73    17    20    1
    74    20    21    1
