@<TRIPOS>MOLECULE
tmp/2z2wA00.pdb
 151 142 0 0 0
SMALL
GASTEIGER

@<TRIPOS>ATOM
      1  N          0.7980   58.9390   20.5590 N.3    15  ILE15      -0.1231
      2  CA         1.6890   57.7940   20.3610 C.3    15  ILE15       0.1692
      3  C          0.9750   56.4850   20.7040 C.2    15  ILE15       0.2592
      4  O          1.5010   55.4040   20.4950 O.2    15  ILE15      -0.2718
      5  CB         3.0300   57.9220   21.2070 C.3    15  ILE15       0.0266
      6  CG1        2.7490   57.9170   22.7380 C.3    15  ILE15       0.0019
      7  CG2        3.8500   59.1000   20.7380 C.3    15  ILE15       0.0020
      8  CD1        3.9640   58.0550   23.6450 C.3    15  ILE15       0.0001
      9  N         -0.2290   56.6150   21.2410 N.am   16  GLY16      -0.1957
     10  CA        -0.9570   55.5100   21.7630 C.3    16  GLY16       0.1869
     11  C         -2.3740   56.0040   21.8250 C.2    16  GLY16       0.2309
     12  O         -2.6070   57.1980   22.0270 O.2    16  GLY16      -0.2863
     13  N         -2.4520   58.0010   24.8750 N.3    23  VAL23      -0.1245
     14  CA        -1.1300   58.3250   25.3890 C.3    23  VAL23       0.1561
     15  C         -0.4490   59.3660   24.5060 C.2    23  VAL23       0.2260
     16  O         -0.4200   59.2170   23.3010 O.2    23  VAL23      -0.2867
     17  CB        -0.2150   57.0450   25.4960 C.3    23  VAL23       0.0252
     18  CG1        1.1170   57.3740   26.2030 C.3    23  VAL23       0.0019
     19  CG2       -0.9270   55.9890   26.2960 C.3    23  VAL23       0.0019
     20  N          5.7780   60.2390   28.8250 N.3    36  ALA36      -0.1245
     21  CA         4.6610   59.6020   28.0810 C.3    36  ALA36       0.1562
     22  C          3.4880   59.7710   29.0290 C.2    36  ALA36       0.2260
     23  O          3.5790   59.4500   30.2470 O.2    36  ALA36      -0.2867
     24  CB         4.9500   58.1970   27.8450 C.3    36  ALA36       0.0290
     25  N         -0.5260   59.1950   29.9110 N.3    38  LYS38      -0.1245
     26  CA        -1.7630   58.5430   29.5740 C.3    38  LYS38       0.1561
     27  C         -2.9560   59.3270   30.1360 C.2    38  LYS38       0.2260
     28  O         -3.0160   59.6120   31.3000 O.2    38  LYS38      -0.2867
     29  CB        -1.7760   57.0510   29.9080 C.3    38  LYS38       0.0271
     30  CG        -3.1300   56.4080   29.4540 C.3    38  LYS38       0.0035
     31  CD        -3.2840   54.8760   29.6580 C.3    38  LYS38       0.0206
     32  CE        -3.0960   54.4360   31.2160 C.3    38  LYS38       0.1093
     33  NZ        -4.3190   54.3640   32.1740 N.3    38  LYS38      -0.1314
     34  N         -3.3170   50.7180   39.2060 N.3    56  GLU56      -0.1245
     35  CA        -2.2420   51.0510   38.2780 C.3    56  GLU56       0.1567
     36  C         -1.3370   52.1500   38.8900 C.2    56  GLU56       0.2260
     37  O         -0.1240   52.0430   38.7750 O.2    56  GLU56      -0.2867
     38  CB        -2.7660   51.3940   36.8500 C.3    56  GLU56       0.0388
     39  CG        -1.6420   51.9050   35.8780 C.3    56  GLU56       0.1160
     40  CD        -2.1290   52.1640   34.4550 C.2    56  GLU56       0.3649
     41  OE1       -3.2900   52.5610   34.3210 O.co2  56  GLU56      -0.2457
     42  OE2       -1.3020   52.0160   33.4750 O.co2  56  GLU56      -0.2457
     43  N          2.4660   51.5160   40.0710 N.3    60  HIS60      -0.1241
     44  CA         3.5280   52.3920   39.5840 C.3    60  HIS60       0.1621
     45  C          4.2400   53.0930   40.6580 C.2    60  HIS60       0.2264
     46  O          5.4250   53.3040   40.5090 O.2    60  HIS60      -0.2867
     47  CB         2.9700   53.5290   38.6610 C.3    60  HIS60       0.0745
     48  CG         3.0520   53.2360   37.2140 C.ar   60  HIS60       0.0817
     49  ND1        4.2540   52.9840   36.5800 N.ar   60  HIS60      -0.2268
     50  CD2        2.0930   53.1360   36.2690 C.ar   60  HIS60       0.1154
     51  CE1        4.0240   52.6900   35.3120 C.ar   60  HIS60       0.1986
     52  NE2        2.7240   52.7810   35.0880 N.ar   60  HIS60      -0.2212
     53  N          9.2560   50.6750   33.6240 N.3    70  VAL70      -0.1245
     54  CA         8.9850   52.0950   33.2910 C.3    70  VAL70       0.1561
     55  C          8.7880   52.9610   34.5690 C.2    70  VAL70       0.2260
     56  O          7.9410   52.6830   35.3670 O.2    70  VAL70      -0.2867
     57  CB         7.7200   52.2090   32.3500 C.3    70  VAL70       0.0252
     58  CG1        7.2800   53.6060   32.2530 C.3    70  VAL70       0.0019
     59  CG2        8.1210   51.7430   30.9230 C.3    70  VAL70       0.0019
     60  N         -1.7280   59.7320   34.0500 N.3    84  ILE84      -0.1245
     61  CA        -0.4910   59.2530   34.6430 C.3    84  ILE84       0.1561
     62  C          0.7440   59.7110   33.7500 C.2    84  ILE84       0.2260
     63  O          0.7380   59.5260   32.5500 O.2    84  ILE84      -0.2867
     64  CB        -0.5700   57.7480   34.9040 C.3    84  ILE84       0.0252
     65  CG1        0.7400   57.1500   35.4550 C.3    84  ILE84       0.0019
     66  CG2       -0.9230   56.9830   33.6580 C.3    84  ILE84       0.0019
     67  CD1        0.4250   55.6910   36.1000 C.3    84  ILE84       0.0001
     68  N          4.5790   59.1830   32.8920 N.3    86  ASN86      -0.1225
     69  CA         5.5820   58.1200   32.9880 C.3    86  ASN86       0.1785
     70  C          6.8620   58.4610   32.2170 C.2    86  ASN86       0.2597
     71  O          6.8640   59.3330   31.3840 O.2    86  ASN86      -0.2718
     72  CB         5.0270   56.7050   32.4970 C.3    86  ASN86       0.1169
     73  CG         4.0600   56.0090   33.5610 C.2    86  ASN86       0.2627
     74  OD1        4.0410   56.3770   34.7150 O.2    86  ASN86      -0.2716
     75  ND2        3.2220   55.1090   33.1100 N.am   86  ASN86      -0.0877
     76  N          7.9490   57.7710   32.5320 N.am   87  GLU87      -0.1965
     77  CA         9.1540   57.7420   31.6660 C.3    87  GLU87       0.1733
     78  C          8.7770   57.5170   30.1740 C.2    87  GLU87       0.2616
     79  O          7.9930   56.5620   29.8600 O.2    87  GLU87      -0.2715
     80  CB        10.0280   56.5460   32.1280 C.3    87  GLU87       0.0429
     81  CG        11.3800   56.4970   31.5140 C.3    87  GLU87       0.1163
     82  CD        12.1660   55.2780   31.9350 C.2    87  GLU87       0.3649
     83  OE1       11.7510   54.5440   32.8580 O.co2  87  GLU87      -0.2457
     84  OE2       13.2860   55.0810   31.3660 O.co2  87  GLU87      -0.2457
     85  N          9.2520   58.4320   29.2940 N.am   88  TYR88      -0.1960
     86  CA         9.2250   58.2250   27.8340 C.3    88  TYR88       0.1771
     87  C         10.3750   57.3210   27.3800 C.2    88  TYR88       0.2620
     88  O         11.5590   57.5930   27.5810 O.2    88  TYR88      -0.2715
     89  CB         9.2730   59.5450   27.0880 C.3    88  TYR88       0.0574
     90  CG         9.1930   59.4240   25.5700 C.ar   88  TYR88      -0.0198
     91  CD1        8.0290   59.0440   24.9460 C.ar   88  TYR88      -0.0009
     92  CD2       10.3280   59.6580   24.7740 C.ar   88  TYR88      -0.0009
     93  CE1        7.9590   58.9350   23.5880 C.ar   88  TYR88       0.0417
     94  CE2       10.2970   59.5250   23.3760 C.ar   88  TYR88       0.0417
     95  CZ         9.1100   59.1780   22.7920 C.ar   88  TYR88       0.1957
     96  OH         9.0270   59.0590   21.4370 O.3    88  TYR88      -0.2866
     97  N         10.0180   56.2190   26.7440 N.am   89  CYS89      -0.1954
     98  CA        11.0270   55.3050   26.2140 C.3    89  CYS89       0.1843
     99  C         11.1020   55.5680   24.7450 C.2    89  CYS89       0.2625
    100  O         10.2010   55.2660   23.9870 O.2    89  CYS89      -0.2714
    101  CB        10.5830   53.8720   26.4520 C.3    89  CYS89       0.0997
    102  SG        10.4940   53.5860   28.2850 S.3    89  CYS89      -0.0797
    103  N         12.2220   56.0750   24.3300 N.am   90  ASN90      -0.1958
    104  CA        12.3160   56.5090   22.9630 C.3    90  ASN90       0.1819
    105  C         12.4290   55.4530   21.8540 C.2    90  ASN90       0.2622
    106  O         12.1610   55.7880   20.7280 O.2    90  ASN90      -0.2715
    107  CB        13.3370   57.5690   22.8640 C.3    90  ASN90       0.1195
    108  CG        14.6890   57.0460   22.6460 C.2    90  ASN90       0.2630
    109  OD1       15.0740   55.9380   23.1420 O.2    90  ASN90      -0.2716
    110  ND2       15.4640   57.8270   21.8500 N.am   90  ASN90      -0.0877
    111  N         12.7050   54.1680   22.1670 N.am   91  GLY91      -0.1940
    112  CA        12.6460   53.1260   21.0920 C.3    91  GLY91       0.2014
    113  C         11.2780   52.5190   20.8580 C.2    91  GLY91       0.2639
    114  O         11.1310   51.6080   20.0950 O.2    91  GLY91      -0.2714
    115  N         10.2540   52.9990   21.5500 N.am   92  GLY92      -0.1939
    116  CA         8.8770   52.4850   21.3950 C.3    92  GLY92       0.2014
    117  C          8.6860   51.1180   21.9920 C.2    92  GLY92       0.2639
    118  O          9.4740   50.7110   22.7950 O.2    92  GLY92      -0.2714
    119  N          7.6560   50.3990   21.5810 N.am   93  SER93      -0.1949
    120  CA         7.3680   49.0460   22.1500 C.3    93  SER93       0.1924
    121  C          8.1440   47.9560   21.4710 C.2    93  SER93       0.2314
    122  O          8.4490   48.0760   20.2830 O.2    93  SER93      -0.2863
    123  CB         5.9020   48.6700   21.9780 C.3    93  SER93       0.2116
    124  OG         5.5760   48.6550   20.5770 O.3    93  SER93      -0.2180
    125  N          6.4450   46.7830   18.1550 N.3    96  ASP96      -0.1239
    126  CA         6.7240   47.3880   16.8520 C.3    96  ASP96       0.1674
    127  C          8.0720   46.9650   16.3270 C.2    96  ASP96       0.2266
    128  O          8.2410   46.8680   15.1190 O.2    96  ASP96      -0.2867
    129  CB         6.6970   48.9090   16.9440 C.3    96  ASP96       0.1410
    130  CG         5.2760   49.4820   17.1010 C.2    96  ASP96       0.3668
    131  OD1        5.1990   50.6600   17.5320 O.co2  96  ASP96      -0.2456
    132  OD2        4.2430   48.7550   16.8560 O.co2  96  ASP96      -0.2456
    133  N          8.8160   48.2210   26.6890 N.3   143  PHE143     -0.1241
    134  CA         9.2910   49.3940   25.9850 C.3   143  PHE143      0.1605
    135  C         10.7770   49.3960   25.9320 C.2   143  PHE143      0.2264
    136  O         11.4410   48.7550   26.7640 O.2   143  PHE143     -0.2867
    137  CB         8.7160   50.7010   26.5830 C.3   143  PHE143      0.0534
    138  CG         7.2290   50.7430   26.5150 C.ar  143  PHE143     -0.0203
    139  CD1        6.5780   51.1900   25.3560 C.ar  143  PHE143     -0.0042
    140  CD2        6.4730   50.2320   27.5720 C.ar  143  PHE143     -0.0042
    141  CE1        5.1350   51.1240   25.2880 C.ar  143  PHE143     -0.0003
    142  CE2        5.0860   50.1770   27.4940 C.ar  143  PHE143     -0.0003
    143  CZ         4.4320   50.6420   26.3680 C.ar  143  PHE143     -0.0000
    144  N          2.8310   49.4990   31.3230 N.3   153  ASP153     -0.1295
    145  CA         1.4120   49.1590   31.4220 C.3   153  ASP153      0.1359
    146  C          1.0540   48.2200   32.5870 C.3   153  ASP153      0.2015
    147  O          0.8270   46.9640   32.4110 O.3   153  ASP153     -0.2188
    148  CB         0.8610   48.6470   30.1110 C.3   153  ASP153      0.1357
    149  CG        -0.6480   48.5890   30.1210 C.2   153  ASP153      0.3664
    150  OD1       -1.1780   48.6010   29.0230 O.co2 153  ASP153     -0.2456
    151  OD2       -1.2840   48.6100   31.2190 O.co2 153  ASP153     -0.2456
@<TRIPOS>BOND
     1   128   127    2
     2   127   126    1
     3   126   129    1
     4   126   125    1
     5   132   130   ar
     6   129   130    1
     7   130   131   ar
     8   114   113    2
     9   122   121    2
    10     2     1    1
    11     2     3    1
    12     2     5    1
    13     4     3    2
    14   124   123    1
    15     3     9   am
    16   106   105    2
    17     7     5    1
    18   113   112    1
    19   113   115   am
    20   112   111    1
    21     5     6    1
    22     9    10    1
    23   116   115    1
    24   116   117    1
    25    96    95    1
    26   121   120    1
    27   119   117   am
    28   119   120    1
    29    10    11    1
    30    11    12    2
    31   110   108   am
    32   105   111   am
    33   105   104    1
    34   123   120    1
    35   117   118    2
    36   108   107    1
    37   108   109    2
    38     6     8    1
    39    95    94   ar
    40    95    93   ar
    41   107   104    1
    42   104   103    1
    43    16    15    2
    44    94    92   ar
    45    93    91   ar
    46   100    99    2
    47   103    99   am
    48    15    14    1
    49    99    98    1
    50    92    90   ar
    51    13    14    1
    52    91    90   ar
    53   141   139   ar
    54   141   143   ar
    55   139   138   ar
    56    14    17    1
    57    17    18    1
    58    17    19    1
    59    90    89    1
    60   135   134    1
    61   135   136    2
    62   134   137    1
    63   134   133    1
    64    98   101    1
    65    98    97    1
    66   143   142   ar
    67   101   102    1
    68   138   137    1
    69   138   140   ar
    70    97    87   am
    71    89    86    1
    72    87    88    2
    73    87    86    1
    74   142   140   ar
    75    86    85    1
    76    24    21    1
    77    21    20    1
    78    21    22    1
    79   150   149   ar
    80    22    23    2
    81    85    78   am
    82    30    31    1
    83    30    29    1
    84    26    29    1
    85    26    25    1
    86    26    27    1
    87    31    32    1
    88    79    78    2
    89   148   149    1
    90   148   145    1
    91   149   151   ar
    92    27    28    2
    93    78    77    1
    94    59    57    1
    95    32    33    1
    96   144   145    1
    97    84    82   ar
    98    71    70    2
    99   145   146    1
   100    81    82    1
   101    81    80    1
   102    77    80    1
   103    77    76    1
   104    82    83   ar
   105    70    76   am
   106    70    69    1
   107    58    57    1
   108    57    54    1
   109   147   146    1
   110    72    69    1
   111    72    73    1
   112    63    62    2
   113    68    69    1
   114    75    73   am
   115    54    53    1
   116    54    55    1
   117    42    40   ar
   118    73    74    2
   119    66    64    1
   120    62    61    1
   121    60    61    1
   122    41    40   ar
   123    40    39    1
   124    55    56    2
   125    61    64    1
   126    64    65    1
   127    52    51   ar
   128    52    50   ar
   129    51    49   ar
   130    65    67    1
   131    39    38    1
   132    50    48   ar
   133    49    48   ar
   134    38    35    1
   135    48    47    1
   136    35    36    1
   137    35    34    1
   138    47    44    1
   139    37    36    2
   140    44    43    1
   141    44    45    1
   142    46    45    2
