@<TRIPOS>MOLECULE
tmp/2z36B01.pdb
 99 88 0 0 0
SMALL
GASTEIGER

@<TRIPOS>ATOM
      1  N         10.2420  -22.8890  -23.9390 N.3    62  LYS62      -0.1245
      2  CA        11.3900  -23.6480  -23.4580 C.3    62  LYS62       0.1561
      3  C         11.4310  -23.7450  -21.9370 C.2    62  LYS62       0.2260
      4  O         12.2180  -24.5100  -21.3760 O.2    62  LYS62      -0.2867
      5  CB        12.6910  -23.0170  -23.9680 C.3    62  LYS62       0.0271
      6  CG        13.0220  -23.3090  -25.4330 C.3    62  LYS62       0.0035
      7  CD        11.9510  -22.7930  -26.3730 C.3    62  LYS62       0.0206
      8  CE        12.3340  -23.0150  -27.8250 C.3    62  LYS62       0.1093
      9  NZ        11.2950  -22.4940  -28.7600 N.3    62  LYS62      -0.1314
     10  N         17.6560  -29.4310  -31.3830 N.3    71  THR71      -0.1203
     11  CA        18.6770  -28.5270  -31.9030 C.3    71  THR71       0.1994
     12  C         19.3120  -27.7710  -30.7430 C.2    71  THR71       0.2617
     13  O         20.3610  -27.1440  -30.8910 O.2    71  THR71      -0.2717
     14  CB        18.0840  -27.4930  -32.8900 C.3    71  THR71       0.1784
     15  OG1       16.9260  -26.8810  -32.3050 O.3    71  THR71      -0.2211
     16  CG2       17.7070  -28.1580  -34.2060 C.3    71  THR71       0.0376
     17  N         18.6670  -27.8430  -29.5840 N.am   72  LEU72      -0.1979
     18  CA        19.1480  -27.1670  -28.3870 C.3    72  LEU72       0.1596
     19  C         20.1360  -28.0160  -27.5930 C.2    72  LEU72       0.2287
     20  O         20.0080  -29.2400  -27.5310 O.2    72  LEU72      -0.2864
     21  CB        17.9670  -26.8130  -27.4790 C.3    72  LEU72       0.0297
     22  CG        16.9350  -25.7990  -27.9710 C.3    72  LEU72       0.0022
     23  CD1       15.7270  -25.8260  -27.0410 C.3    72  LEU72       0.0001
     24  CD2       17.5530  -24.4040  -28.0140 C.3    72  LEU72       0.0001
     25  N         22.4800  -24.5770  -23.9200 N.3    76  THR76      -0.1218
     26  CA        21.6710  -23.6080  -24.6440 C.3    76  THR76       0.1862
     27  C         20.2720  -23.5380  -24.0400 C.2    76  THR76       0.2287
     28  O         19.6530  -22.4720  -24.0010 O.2    76  THR76      -0.2866
     29  CB        21.5640  -23.9710  -26.1300 C.3    76  THR76       0.1770
     30  OG1       22.8790  -24.1180  -26.6760 O.3    76  THR76      -0.2211
     31  CG2       20.8350  -22.8760  -26.8910 C.3    76  THR76       0.0375
     32  N         18.5080  -20.1850  -22.1400 N.3    80  LEU80      -0.1245
     33  CA        17.1510  -19.7080  -22.3810 C.3    80  LEU80       0.1561
     34  C         16.3270  -19.5950  -21.1030 C.2    80  LEU80       0.2260
     35  O         15.4520  -18.7410  -21.0020 O.2    80  LEU80      -0.2867
     36  CB        16.4510  -20.6290  -23.3790 C.3    80  LEU80       0.0270
     37  CG        17.0030  -20.5630  -24.8070 C.3    80  LEU80       0.0019
     38  CD1       16.4540  -21.7060  -25.6410 C.3    80  LEU80       0.0001
     39  CD2       16.6340  -19.2200  -25.4260 C.3    80  LEU80       0.0001
     40  N         10.1200  -16.2560  -29.9040 N.3    88  LEU88      -0.1245
     41  CA        10.2330  -17.5920  -30.4670 C.3    88  LEU88       0.1561
     42  C          9.9790  -18.6500  -29.3950 C.2    88  LEU88       0.2260
     43  O          9.8960  -19.8410  -29.6940 O.2    88  LEU88      -0.2867
     44  CB        11.6430  -17.7410  -31.0360 C.3    88  LEU88       0.0270
     45  CG        11.9910  -18.5360  -32.2910 C.3    88  LEU88       0.0019
     46  CD1       10.8430  -18.5930  -33.2830 C.3    88  LEU88       0.0001
     47  CD2       13.1970  -17.8510  -32.9120 C.3    88  LEU88       0.0001
     48  N         19.4980  -11.8270  -35.2930 N.3   236  THR236     -0.1203
     49  CA        19.7300  -13.2570  -35.1290 C.3   236  THR236      0.1994
     50  C         18.8740  -14.1570  -36.0080 C.2   236  THR236      0.2617
     51  O         19.3820  -15.0760  -36.6480 O.2   236  THR236     -0.2717
     52  CB        19.5210  -13.6740  -33.6660 C.3   236  THR236      0.1784
     53  OG1       20.7070  -13.3760  -32.9200 O.3   236  THR236     -0.2211
     54  CG2       19.2040  -15.1610  -33.5650 C.3   236  THR236      0.0376
     55  N         17.5760  -13.8970  -36.0320 N.am  237  ALA237     -0.1979
     56  CA        16.6630  -14.7090  -36.8190 C.3   237  ALA237      0.1597
     57  C         16.7010  -14.4000  -38.3060 C.2   237  ALA237      0.2287
     58  O         16.1410  -15.1490  -39.1090 O.2   237  ALA237     -0.2864
     59  CB        15.2410  -14.5360  -36.2960 C.3   237  ALA237      0.0319
     60  N         20.1980  -17.0710  -41.7020 N.3   241  THR241     -0.1218
     61  CA        19.1790  -17.7410  -42.4980 C.3   241  THR241      0.1862
     62  C         19.1520  -17.1570  -43.9050 C.2   241  THR241      0.2287
     63  O         19.1710  -17.8940  -44.8910 O.2   241  THR241     -0.2866
     64  CB        17.7920  -17.5880  -41.8650 C.3   241  THR241      0.1770
     65  OG1       17.4620  -16.1970  -41.7660 O.3   241  THR241     -0.2211
     66  CG2       17.7730  -18.2090  -40.4800 C.3   241  THR241      0.0375
     67  N         15.7560  -24.4260  -42.5580 N.3   284  ALA284     -0.1245
     68  CA        15.3900  -24.2980  -41.1520 C.3   284  ALA284      0.1562
     69  C         14.7920  -25.6090  -40.6630 C.2   284  ALA284      0.2260
     70  O         14.3270  -25.7030  -39.5290 O.2   284  ALA284     -0.2867
     71  CB        14.3860  -23.1610  -40.9730 C.3   284  ALA284      0.0290
     72  N         14.1440  -26.6520  -36.7750 N.3   287  VAL287     -0.1245
     73  CA        14.1460  -25.6620  -35.7050 C.3   287  VAL287      0.1561
     74  C         12.7530  -25.5950  -35.0820 C.2   287  VAL287      0.2260
     75  O         12.5670  -25.0200  -34.0100 O.2   287  VAL287     -0.2867
     76  CB        14.5200  -24.2610  -36.2260 C.3   287  VAL287      0.0252
     77  CG1       15.8700  -24.3060  -36.9150 C.3   287  VAL287      0.0019
     78  CG2       13.4440  -23.7530  -37.1740 C.3   287  VAL287      0.0019
     79  N         10.6950  -27.3620  -33.1770 N.3   289  SER289     -0.1217
     80  CA        10.4210  -28.3990  -32.1930 C.3   289  SER289      0.1889
     81  C          9.3740  -27.8360  -31.2380 C.2   289  SER289      0.2288
     82  O          9.3950  -26.6490  -30.9120 O.2   289  SER289     -0.2866
     83  CB        11.6980  -28.7790  -31.4340 C.3   289  SER289      0.2089
     84  OG        12.2820  -27.6530  -30.8070 O.3   289  SER289     -0.2183
     85  N         22.4770  -26.5030  -37.5430 N.3   388  VAL388     -0.1231
     86  CA        21.0330  -26.4890  -37.3300 C.3   388  VAL388      0.1692
     87  C         20.3510  -25.8950  -38.5520 C.2   388  VAL388      0.2591
     88  O         19.2810  -26.3430  -38.9580 O.2   388  VAL388     -0.2718
     89  CB        20.6430  -25.6450  -36.1040 C.3   388  VAL388      0.0266
     90  CG1       19.1320  -25.5110  -36.0310 C.3   388  VAL388      0.0020
     91  CG2       21.1690  -26.2930  -34.8360 C.3   388  VAL388      0.0020
     92  N         20.9770  -24.8720  -39.1250 N.am  389  ILE389     -0.1980
     93  CA        20.4550  -24.2130  -40.3150 C.3   389  ILE389      0.1595
     94  C         21.3880  -24.4960  -41.4850 C.2   389  ILE389      0.2287
     95  O         22.5540  -24.0990  -41.4740 O.2   389  ILE389     -0.2864
     96  CB        20.3340  -22.6910  -40.0980 C.3   389  ILE389      0.0276
     97  CG1       19.2170  -22.4100  -39.0910 C.3   389  ILE389      0.0022
     98  CG2       20.0460  -21.9890  -41.4200 C.3   389  ILE389      0.0022
     99  CD1       19.0340  -20.9510  -38.7720 C.3   389  ILE389      0.0001
@<TRIPOS>BOND
     1    63    62    2
     2    62    61    1
     3    67    68    1
     4    61    64    1
     5    61    60    1
     6    64    65    1
     7    64    66    1
     8    94    95    2
     9    94    93    1
    10    98    96    1
    11    68    71    1
    12    68    69    1
    13    69    70    2
    14    93    96    1
    15    93    92    1
    16    96    97    1
    17    92    87   am
    18    58    57    2
    19    97    99    1
    20    88    87    2
    21    87    86    1
    22    57    56    1
    23    85    86    1
    24    86    89    1
    25    78    76    1
    26    77    76    1
    27    56    59    1
    28    56    55    1
    29    72    73    1
    30    51    50    2
    31    76    73    1
    32    89    90    1
    33    89    91    1
    34    55    50   am
    35    50    49    1
    36    73    74    1
    37    48    49    1
    38    49    52    1
    39    74    75    2
    40    16    14    1
    41    52    54    1
    42    52    53    1
    43    46    45    1
    44    79    80    1
    45    47    45    1
    46    14    15    1
    47    14    11    1
    48    45    44    1
    49    80    83    1
    50    80    81    1
    51    11    10    1
    52    11    12    1
    53    83    84    1
    54    81    82    2
    55    44    41    1
    56    13    12    2
    57    12    17   am
    58    41    40    1
    59    41    42    1
    60    43    42    2
    61    17    18    1
    62     9     8    1
    63    18    19    1
    64    18    21    1
    65    24    22    1
    66    22    21    1
    67    22    23    1
    68     8     7    1
    69    19    20    2
    70    31    29    1
    71    30    29    1
    72     7     6    1
    73    29    26    1
    74    38    37    1
    75     6     5    1
    76    39    37    1
    77    37    36    1
    78    26    27    1
    79    26    25    1
    80    27    28    2
    81     5     2    1
    82     1     2    1
    83     2     3    1
    84    36    33    1
    85    33    32    1
    86    33    34    1
    87     3     4    2
    88    34    35    2
