@<TRIPOS>MOLECULE
tmp/2z3cA00.pdb
 97 94 0 0 0
SMALL
GASTEIGER

@<TRIPOS>ATOM
      1  N         25.3200   -7.8230   -8.7950 N.3    41  HIS41      -0.1241
      2  CA        26.3000   -7.2620   -7.8470 C.3    41  HIS41       0.1621
      3  C         26.3910   -8.0290   -6.5220 C.2    41  HIS41       0.2264
      4  O         27.2330   -7.7100   -5.6710 O.2    41  HIS41      -0.2867
      5  CB        26.1540   -5.7490   -7.6240 C.3    41  HIS41       0.0745
      6  CG        24.9020   -5.3540   -6.8970 C.ar   41  HIS41       0.0817
      7  ND1       23.8770   -4.6630   -7.5080 N.ar   41  HIS41      -0.2268
      8  CD2       24.5190   -5.5360   -5.6100 C.ar   41  HIS41       0.1154
      9  CE1       22.9140   -4.4450   -6.6300 C.ar   41  HIS41       0.1986
     10  NE2       23.2770   -4.9650   -5.4720 N.ar   41  HIS41      -0.2212
     11  N         33.1780   -2.9380   -6.4130 N.3    49  MET49      -0.1245
     12  CA        32.0950   -2.0580   -6.8900 C.3    49  MET49       0.1570
     13  C         32.5170   -0.7750   -7.6160 C.2    49  MET49       0.2261
     14  O         31.7540   -0.2360   -8.4110 O.2    49  MET49      -0.2867
     15  CB        31.1360   -1.7130   -5.7490 C.3    49  MET49       0.0387
     16  CG        30.1700   -2.8280   -5.4220 C.3    49  MET49       0.0595
     17  SD        29.4100   -3.5950   -6.8780 S.3    49  MET49      -0.1393
     18  CE        28.3650   -2.2960   -7.5020 C.3    49  MET49       0.0692
     19  N         17.9570   -2.2400   -7.3170 N.3   164  HIS164     -0.1226
     20  CA        19.4540   -2.3370   -7.3480 C.3   164  HIS164      0.1752
     21  C         20.0980   -1.2490   -6.4930 C.2   164  HIS164      0.2596
     22  O         21.0490   -1.5050   -5.7960 O.2   164  HIS164     -0.2718
     23  CB        20.0420   -2.2510   -8.7800 C.3   164  HIS164      0.0759
     24  CG        19.8220   -3.4780   -9.6090 C.ar  164  HIS164      0.0818
     25  ND1       20.8530   -4.2980  -10.0220 N.ar  164  HIS164     -0.2268
     26  CD2       18.6830   -4.0250  -10.1050 C.ar  164  HIS164      0.1154
     27  CE1       20.3590   -5.3060  -10.7200 C.ar  164  HIS164      0.1986
     28  NE2       19.0440   -5.1720  -10.7730 N.ar  164  HIS164     -0.2212
     29  N         19.6140   -0.0150   -6.5430 N.am  165  MET165     -0.1965
     30  CA        20.4320    1.0090   -5.8900 C.3   165  MET165      0.1736
     31  C         19.7290    2.3060   -5.6540 C.2   165  MET165      0.2616
     32  O         18.6450    2.5160   -6.1670 O.2   165  MET165     -0.2715
     33  CB        21.6570    1.3180   -6.7510 C.3   165  MET165      0.0427
     34  CG        21.3240    2.0330   -8.0310 C.3   165  MET165      0.0599
     35  SD        22.6920    1.8390   -9.2100 S.3   165  MET165     -0.1393
     36  CE        22.4370    3.2970  -10.1640 C.3   165  MET165      0.0692
     37  N         20.3840    3.1840   -4.8930 N.am  166  GLU166     -0.1963
     38  CA        19.8240    4.4610   -4.5440 C.3   166  GLU166      0.1733
     39  C         20.7840    5.5470   -4.9820 C.2   166  GLU166      0.2616
     40  O         22.0070    5.3800   -4.8790 O.2   166  GLU166     -0.2715
     41  CB        19.6120    4.5140   -3.0210 C.3   166  GLU166      0.0429
     42  CG        19.0750    5.8330   -2.5380 C.3   166  GLU166      0.1163
     43  CD        18.7130    5.8230   -1.0450 C.2   166  GLU166      0.3649
     44  OE1       19.2580    6.6810   -0.3110 O.co2 166  GLU166     -0.2457
     45  OE2       17.8990    4.9930   -0.5970 O.co2 166  GLU166     -0.2457
     46  N         20.2290    6.6660   -5.4410 N.am  167  LEU167     -0.1977
     47  CA        21.0240    7.7180   -6.0210 C.3   167  LEU167      0.1596
     48  C         21.1620    8.7880   -4.9850 C.2   167  LEU167      0.2287
     49  O         20.4770    8.7270   -3.9750 O.2   167  LEU167     -0.2864
     50  CB        20.3530    8.2440   -7.3000 C.3   167  LEU167      0.0297
     51  CG        20.1750    7.1960   -8.3950 C.3   167  LEU167      0.0022
     52  CD1       19.3080    7.6590   -9.5510 C.3   167  LEU167      0.0001
     53  CD2       21.5100    6.6590   -8.9140 C.3   167  LEU167      0.0001
     54  N         25.3440   -0.5960  -12.8090 N.3   187  ASP187     -0.1225
     55  CA        25.5250   -1.1420  -11.4730 C.3   187  ASP187      0.1805
     56  C         26.9860   -1.0730  -11.0290 C.2   187  ASP187      0.2598
     57  O         27.6980   -2.0750  -10.9850 O.2   187  ASP187     -0.2718
     58  CB        24.9300   -2.5550  -11.3350 C.3   187  ASP187      0.1424
     59  CG        25.3480   -3.5070  -12.4430 C.2   187  ASP187      0.3668
     60  OD1       25.9190   -3.0740  -13.4470 O.co2 187  ASP187     -0.2456
     61  OD2       25.0890   -4.7260  -12.3120 O.co2 187  ASP187     -0.2456
     62  N         27.4230    0.1440  -10.7310 N.am  188  ARG188     -0.1966
     63  CA        28.7270    0.4030  -10.1240 C.3   188  ARG188      0.1729
     64  C         28.7000    1.6760   -9.2850 C.2   188  ARG188      0.2616
     65  O         27.9070    2.5730   -9.5380 O.2   188  ARG188     -0.2715
     66  CB        29.8740    0.4480  -11.1560 C.3   188  ARG188      0.0348
     67  CG        29.6850    1.3520  -12.3590 C.3   188  ARG188      0.0492
     68  CD        30.6290    0.9160  -13.5050 C.3   188  ARG188      0.2205
     69  NE        30.6910    1.9310  -14.5680 N.pl3 188  ARG188     -0.0865
     70  CZ        30.2400    1.7760  -15.8200 C.cat 188  ARG188      0.5346
     71  NH1       30.3450    2.7850  -16.6870 N.pl3 188  ARG188      0.1354
     72  NH2       29.6860    0.6200  -16.2110 N.pl3 188  ARG188      0.1354
     73  N         29.5690    1.7140   -8.2760 N.am  189  GLN189     -0.1963
     74  CA        29.7230    2.8670   -7.3690 C.3   189  GLN189      0.1733
     75  C         30.5680    3.9540   -8.0400 C.2   189  GLN189      0.2617
     76  O         31.8140    3.9780   -7.9620 O.2   189  GLN189     -0.2715
     77  CB        30.3000    2.3850   -6.0190 C.3   189  GLN189      0.0408
     78  CG        31.3490    3.2760   -5.3250 C.3   189  GLN189      0.0908
     79  CD        30.7450    4.3890   -4.4800 C.2   189  GLN189      0.2608
     80  OE1       31.3470    4.8220   -3.4730 O.2   189  GLN189     -0.2717
     81  NE2       29.5570    4.8600   -4.8760 N.am  189  GLN189     -0.0878
     82  N         29.8770    4.8110   -8.7660 N.am  190  THR190     -0.1951
     83  CA        30.5080    5.8830   -9.5210 C.3   190  THR190      0.1897
     84  C         29.5040    7.0120   -9.4830 C.2   190  THR190      0.2313
     85  O         28.3460    6.7680   -9.1450 O.2   190  THR190     -0.2863
     86  CB        30.8280    5.4410  -10.9880 C.3   190  THR190      0.1794
     87  OG1       31.5170    6.4950  -11.6730 O.3   190  THR190     -0.2208
     88  CG2       29.5550    5.0640  -11.7700 C.3   190  THR190      0.0378
     89  N         26.6870    9.0660  -10.4360 N.3   192  GLN192     -0.1245
     90  CA        25.5210    8.9880  -11.3120 C.3   192  GLN192      0.1566
     91  C         24.4830    9.8520  -10.6530 C.2   192  GLN192      0.2260
     92  O         24.4090    9.9230   -9.4200 O.2   192  GLN192     -0.2867
     93  CB        24.9820    7.5570  -11.4290 C.3   192  GLN192      0.0367
     94  CG        26.0170    6.5270  -11.7330 C.3   192  GLN192      0.0905
     95  CD        25.4330    5.1660  -11.9800 C.2   192  GLN192      0.2608
     96  OE1       24.5790    5.0030  -12.8340 O.2   192  GLN192     -0.2717
     97  NE2       25.9070    4.1680  -11.2490 N.am  192  GLN192     -0.0878
@<TRIPOS>BOND
     1    71    70    1
     2    72    70    1
     3    70    69    2
     4    69    68    1
     5    68    67    1
     6    60    59   ar
     7    96    95    2
     8    54    55    1
     9    59    61   ar
    10    59    58    1
    11    67    66    1
    12    95    94    1
    13    95    97   am
    14    88    86    1
    15    94    93    1
    16    87    86    1
    17    55    58    1
    18    55    56    1
    19    93    90    1
    20    90    91    1
    21    90    89    1
    22    66    63    1
    23    56    57    2
    24    56    62   am
    25    86    83    1
    26    28    27   ar
    27    28    26   ar
    28    62    63    1
    29    27    25   ar
    30    91    92    2
    31    36    35    1
    32    63    64    1
    33    26    24   ar
    34    25    24   ar
    35    24    23    1
    36    52    51    1
    37    65    64    2
    38    83    84    1
    39    83    82    1
    40    84    85    2
    41    64    73   am
    42    35    34    1
    43    53    51    1
    44     1     2    1
    45    23    20    1
    46    82    75   am
    47    14    13    2
    48    51    50    1
    49    73    74    1
    50    75    76    2
    51    75    74    1
    52    34    33    1
    53     2     5    1
    54     2     3    1
    55     5     6    1
    56    13    12    1
    57     7     6   ar
    58     7     9   ar
    59    18    17    1
    60    74    77    1
    61    20    19    1
    62    20    21    1
    63    50    47    1
    64     6     8   ar
    65    12    11    1
    66    12    15    1
    67    17    16    1
    68    33    30    1
    69     9    10   ar
    70    29    21   am
    71    29    30    1
    72     3     4    2
    73    21    22    2
    74    32    31    2
    75    47    46    1
    76    47    48    1
    77    77    78    1
    78    30    31    1
    79    15    16    1
    80    31    37   am
    81     8    10   ar
    82    46    39   am
    83    78    79    1
    84    48    49    2
    85    39    40    2
    86    39    38    1
    87    37    38    1
    88    81    79   am
    89    38    41    1
    90    79    80    2
    91    41    42    1
    92    42    43    1
    93    43    45   ar
    94    43    44   ar
