@<TRIPOS>MOLECULE
tmp/2z3dA00.pdb
 118 114 0 0 0
SMALL
GASTEIGER

@<TRIPOS>ATOM
      1  N        -25.2050  -48.3820    9.0760 N.3    41  HIS41      -0.1241
      2  CA       -26.1650  -47.8340    8.1080 C.3    41  HIS41       0.1621
      3  C        -26.2330  -48.5830    6.7540 C.2    41  HIS41       0.2264
      4  O        -26.9880  -48.1720    5.8630 O.2    41  HIS41      -0.2867
      5  CB       -26.0340  -46.2970    8.0450 C.3    41  HIS41       0.0745
      6  CG       -24.8420  -45.9020    7.3280 C.ar   41  HIS41       0.0817
      7  ND1      -23.7980  -45.2380    7.9320 N.ar   41  HIS41      -0.2268
      8  CD2      -24.4860  -46.0680    6.0320 C.ar   41  HIS41       0.1154
      9  CE1      -22.8600  -44.9930    7.0350 C.ar   41  HIS41       0.1986
     10  NE2      -23.2460  -45.5010    5.8790 N.ar   41  HIS41      -0.2212
     11  N        -32.5260  -43.1970    6.6740 N.3    49  MET49      -0.1245
     12  CA       -31.4620  -42.2820    7.1040 C.3    49  MET49       0.1570
     13  C        -31.9810  -41.0000    7.7600 C.2    49  MET49       0.2261
     14  O        -31.3170  -40.4450    8.6260 O.2    49  MET49      -0.2867
     15  CB       -30.5200  -41.9470    5.9430 C.3    49  MET49       0.0387
     16  CG       -29.5370  -43.0630    5.5640 C.3    49  MET49       0.0595
     17  SD       -28.6490  -43.8990    6.9150 S.3    49  MET49      -0.1393
     18  CE       -27.7130  -42.5540    7.6390 C.3    49  MET49       0.0692
     19  N        -19.4280  -41.2350   -3.0760 N.3   142  ASN142     -0.1240
     20  CA       -20.4730  -42.2130   -2.7040 C.3   142  ASN142      0.1653
     21  C        -19.8440  -43.5980   -2.7650 C.2   142  ASN142      0.2266
     22  O        -19.1310  -43.9240   -3.7190 O.2   142  ASN142     -0.2867
     23  CB       -21.6770  -42.1770   -3.6640 C.3   142  ASN142      0.1155
     24  CG       -22.5050  -40.8680   -3.5920 C.2   142  ASN142      0.2627
     25  OD1      -22.3440  -40.0370   -2.7040 O.2   142  ASN142     -0.2716
     26  ND2      -23.4180  -40.7150   -4.5510 N.am  142  ASN142     -0.0877
     27  N        -17.8750  -45.2130    2.3030 N.3   145  CYS145     -0.1235
     28  CA       -18.2130  -45.6380    3.6760 C.3   145  CYS145      0.1677
     29  C        -17.5730  -46.9580    4.0040 C.2   145  CYS145      0.2270
     30  O        -17.5060  -47.8150    3.1490 O.2   145  CYS145     -0.2867
     31  CB       -19.7090  -45.7660    3.8460 C.3   145  CYS145      0.0956
     32  SG       -20.4810  -44.1170    3.8510 S.3   145  CYS145     -0.0801
     33  N        -17.8960  -42.8120    7.6520 N.3   164  HIS164     -0.1226
     34  CA       -19.3750  -42.8860    7.7350 C.3   164  HIS164      0.1752
     35  C        -20.0670  -41.8040    6.9250 C.2   164  HIS164      0.2596
     36  O        -21.0080  -42.1000    6.2030 O.2   164  HIS164     -0.2718
     37  CB       -19.8770  -42.8250    9.1930 C.3   164  HIS164      0.0759
     38  CG       -19.6680  -44.0910    9.9670 C.ar  164  HIS164      0.0818
     39  ND1      -20.7140  -44.8950   10.3880 N.ar  164  HIS164     -0.2268
     40  CD2      -18.5380  -44.6880   10.4120 C.ar  164  HIS164      0.1154
     41  CE1      -20.2310  -45.9390   11.0430 C.ar  164  HIS164      0.1986
     42  NE2      -18.9130  -45.8420   11.0630 N.ar  164  HIS164     -0.2212
     43  N        -19.6420  -40.5470    7.0520 N.am  165  MET165     -0.1965
     44  CA       -20.3880  -39.4750    6.3820 C.3   165  MET165      0.1736
     45  C        -19.5930  -38.2210    6.0370 C.2   165  MET165      0.2616
     46  O        -18.4800  -38.0040    6.5220 O.2   165  MET165     -0.2715
     47  CB       -21.5710  -39.0700    7.2400 C.3   165  MET165      0.0427
     48  CG       -21.1760  -38.2140    8.3970 C.3   165  MET165      0.0599
     49  SD       -22.3980  -38.5020    9.6330 S.3   165  MET165     -0.1393
     50  CE       -22.7670  -36.7940   10.0270 C.3   165  MET165      0.0692
     51  N        -20.2320  -37.3890    5.2200 N.am  166  GLU166     -0.1963
     52  CA       -19.7020  -36.1380    4.7740 C.3   166  GLU166      0.1733
     53  C        -20.6630  -35.0600    5.2380 C.2   166  GLU166      0.2616
     54  O        -21.8840  -35.2370    5.1430 O.2   166  GLU166     -0.2715
     55  CB       -19.6330  -36.1290    3.2510 C.3   166  GLU166      0.0429
     56  CG       -19.0560  -34.8670    2.7080 C.3   166  GLU166      0.1163
     57  CD       -18.7320  -34.9570    1.2470 C.2   166  GLU166      0.3649
     58  OE1      -19.4590  -34.3200    0.4480 O.co2 166  GLU166     -0.2457
     59  OE2      -17.7670  -35.6610    0.8850 O.co2 166  GLU166     -0.2457
     60  N        -20.1100  -33.9460    5.7260 N.am  167  LEU167     -0.1964
     61  CA       -20.9070  -32.8990    6.3000 C.3   167  LEU167      0.1713
     62  C        -21.0920  -31.8620    5.1990 C.2   167  LEU167      0.2458
     63  O        -20.4500  -31.9790    4.1520 O.2   167  LEU167     -0.2730
     64  CB       -20.2320  -32.3520    7.5750 C.3   167  LEU167      0.0310
     65  CG       -19.9870  -33.3580    8.7220 C.3   167  LEU167      0.0022
     66  CD1      -18.8050  -32.9680    9.5760 C.3   167  LEU167      0.0001
     67  CD2      -21.2100  -33.5820    9.6090 C.3   167  LEU167      0.0001
     68  N        -21.9750  -30.8600    5.4050 N.am  168  PRO168     -0.2727
     69  CA       -22.2960  -29.9360    4.3070 C.3   168  PRO168      0.1402
     70  C        -21.1280  -29.0540    3.8550 C.2   168  PRO168      0.2269
     71  O        -21.1980  -28.4300    2.7780 O.2   168  PRO168     -0.2865
     72  CB       -23.4290  -29.0590    4.8860 C.3   168  PRO168      0.0296
     73  CG       -23.8680  -29.7190    6.1140 C.3   168  PRO168      0.0237
     74  CD       -22.7250  -30.5330    6.6270 C.3   168  PRO168      0.0939
     75  N        -24.9550  -41.0980   12.9360 N.3   187  ASP187     -0.1225
     76  CA       -25.2550  -41.7090   11.6320 C.3   187  ASP187      0.1805
     77  C        -26.7530  -41.6700   11.3230 C.2   187  ASP187      0.2598
     78  O        -27.4300  -42.7090   11.2500 O.2   187  ASP187     -0.2718
     79  CB       -24.6830  -43.1380   11.5070 C.3   187  ASP187      0.1424
     80  CG       -25.0850  -44.0510   12.6590 C.2   187  ASP187      0.3668
     81  OD1      -25.6840  -43.5510   13.6370 O.co2 187  ASP187     -0.2456
     82  OD2      -24.7940  -45.2730   12.5860 O.co2 187  ASP187     -0.2456
     83  N        -27.2520  -40.4480   11.1740 N.am  188  ARG188     -0.1966
     84  CA       -28.5390  -40.1660   10.5390 C.3   188  ARG188      0.1729
     85  C        -28.4480  -38.8310    9.7840 C.2   188  ARG188      0.2616
     86  O        -27.6130  -37.9830   10.1100 O.2   188  ARG188     -0.2715
     87  CB       -29.6890  -40.1690   11.5490 C.3   188  ARG188      0.0348
     88  CG       -29.5220  -39.2820   12.7590 C.3   188  ARG188      0.0492
     89  CD       -30.5670  -39.6130   13.8390 C.3   188  ARG188      0.2205
     90  NE       -30.5820  -38.5630   14.8630 N.pl3 188  ARG188     -0.0865
     91  CZ       -30.2000  -38.7100   16.1350 C.cat 188  ARG188      0.5346
     92  NH1      -30.2320  -37.6640   16.9610 N.pl3 188  ARG188      0.1354
     93  NH2      -29.7900  -39.8950   16.5870 N.pl3 188  ARG188      0.1354
     94  N        -29.2840  -38.6690    8.7600 N.am  189  GLN189     -0.1963
     95  CA       -29.2810  -37.4590    7.9220 C.3   189  GLN189      0.1733
     96  C        -30.1450  -36.3750    8.5670 C.2   189  GLN189      0.2617
     97  O        -31.3740  -36.3810    8.4720 O.2   189  GLN189     -0.2715
     98  CB       -29.6870  -37.8050    6.4750 C.3   189  GLN189      0.0408
     99  CG       -30.7170  -36.9000    5.8250 C.3   189  GLN189      0.0908
    100  CD       -30.1330  -35.8930    4.8500 C.2   189  GLN189      0.2608
    101  OE1      -30.5620  -35.8290    3.6850 O.2   189  GLN189     -0.2717
    102  NE2      -29.1710  -35.0880    5.3140 N.am  189  GLN189     -0.0878
    103  N        -29.4700  -35.4730    9.2650 N.am  190  THR190     -0.1951
    104  CA       -30.0910  -34.4350   10.0730 C.3   190  THR190      0.1897
    105  C        -29.3090  -33.1440    9.8190 C.2   190  THR190      0.2313
    106  O        -28.3030  -33.1630    9.1230 O.2   190  THR190     -0.2863
    107  CB       -30.0910  -34.8350   11.5920 C.3   190  THR190      0.1794
    108  OG1      -30.4180  -33.7040   12.4120 O.3   190  THR190     -0.2208
    109  CG2      -28.7320  -35.3430   12.0320 C.3   190  THR190      0.0378
    110  N        -26.7410  -31.3200   11.1220 N.3   192  GLN192     -0.1245
    111  CA       -25.5960  -31.3040   12.0250 C.3   192  GLN192      0.1566
    112  C        -24.4190  -30.8200   11.1830 C.2   192  GLN192      0.2260
    113  O        -24.3470  -31.1000    9.9780 O.2   192  GLN192     -0.2867
    114  CB       -25.3440  -32.6880   12.6430 C.3   192  GLN192      0.0367
    115  CG       -25.1860  -33.8180   11.6300 C.3   192  GLN192      0.0905
    116  CD       -25.0650  -35.1930   12.2520 C.2   192  GLN192      0.2608
    117  OE1      -24.4740  -35.3590   13.3220 O.2   192  GLN192     -0.2717
    118  NE2      -25.6180  -36.2050   11.5680 N.am  192  GLN192     -0.0878
@<TRIPOS>BOND
     1    26    24   am
     2    22    21    2
     3    23    24    1
     4    23    20    1
     5    24    25    2
     6    19    20    1
     7    21    20    1
     8    58    57   ar
     9    59    57   ar
    10    57    56    1
    11    27    28    1
    12    56    55    1
    13    71    70    2
    14    30    29    2
    15    55    52    1
    16    28    31    1
    17    28    29    1
    18   101   100    2
    19    31    32    1
    20    70    69    1
    21    63    62    2
    22    69    72    1
    23    69    68    1
    24    52    51    1
    25    52    53    1
    26   100   102   am
    27   100    99    1
    28    72    73    1
    29    54    53    2
    30    62    68   am
    31    62    61    1
    32    51    45   am
    33    53    60   am
    34    68    74    1
    35    16    15    1
    36    16    17    1
    37    60    61    1
    38    99    98    1
    39     4     3    2
    40    10     8   ar
    41    10     9   ar
    42    15    12    1
    43     8     6   ar
    44    45    44    1
    45    45    46    2
    46    73    74    1
    47    36    35    2
    48    61    64    1
    49    44    43    1
    50    44    47    1
    51    98    95    1
    52    11    12    1
    53     3     2    1
    54    17    18    1
    55    35    43   am
    56    35    34    1
    57     9     7   ar
    58    12    13    1
    59    47    48    1
    60     6     7   ar
    61     6     5    1
    62    64    65    1
    63    33    34    1
    64    34    37    1
    65    13    14    2
    66    95    96    1
    67    95    94    1
    68     5     2    1
    69     2     1    1
    70    48    49    1
    71    97    96    2
    72    96   103   am
    73    65    66    1
    74    65    67    1
    75    94    85   am
    76   106   105    2
    77    37    38    1
    78   103   104    1
    79    49    50    1
    80    85    86    2
    81    85    84    1
    82   105   104    1
    83    38    39   ar
    84    38    40   ar
    85   113   112    2
    86   104   107    1
    87    39    41   ar
    88    40    42   ar
    89    84    83    1
    90    84    87    1
    91    41    42   ar
    92   110   111    1
    93    83    77   am
    94   112   111    1
    95    78    77    2
    96    77    76    1
    97    79    76    1
    98    79    80    1
    99    87    88    1
   100   118   116   am
   101   107   109    1
   102   107   108    1
   103   115   116    1
   104   115   114    1
   105    76    75    1
   106   111   114    1
   107   116   117    2
   108    82    80   ar
   109    80    81   ar
   110    88    89    1
   111    89    90    1
   112    90    91    2
   113    91    93    1
   114    91    92    1
