@<TRIPOS>MOLECULE
tmp/2z3eA00.pdb
 176 175 0 0 0
SMALL
GASTEIGER

@<TRIPOS>ATOM
      1  N        -18.5790   -8.1660  -16.9920 N.3    41  HIS41      -0.1241
      2  CA       -19.5250   -7.5540  -17.9150 C.3    41  HIS41       0.1621
      3  C        -19.6110   -8.3170  -19.2430 C.2    41  HIS41       0.2264
      4  O        -20.4700   -8.0070  -20.0810 O.2    41  HIS41      -0.2867
      5  CB       -19.3460   -6.0040  -18.0370 C.3    41  HIS41       0.0745
      6  CG       -18.1750   -5.5410  -18.8610 C.ar   41  HIS41       0.0817
      7  ND1      -17.2210   -4.6700  -18.3680 N.ar   41  HIS41      -0.2268
      8  CD2      -17.8490   -5.7450  -20.1610 C.ar   41  HIS41       0.1154
      9  CE1      -16.3420   -4.3880  -19.3110 C.ar   41  HIS41       0.1986
     10  NE2      -16.7030   -5.0220  -20.4120 N.ar   41  HIS41      -0.2212
     11  N        -26.3860   -2.7210  -19.3820 N.3    49  MET49      -0.1245
     12  CA       -25.1850   -2.1810  -18.8070 C.3    49  MET49       0.1570
     13  C        -25.6110   -0.9580  -18.0160 C.2    49  MET49       0.2261
     14  O        -24.9010   -0.5020  -17.1200 O.2    49  MET49      -0.2867
     15  CB       -24.2110   -1.7750  -19.9070 C.3    49  MET49       0.0387
     16  CG       -23.3160   -2.9110  -20.3980 C.3    49  MET49       0.0595
     17  SD       -22.4120   -3.7710  -19.0750 S.3    49  MET49      -0.1393
     18  CE       -21.4510   -2.4900  -18.2760 C.3    49  MET49       0.0692
     19  N         -6.9330    2.0820  -26.5730 N.3   140  PHE140     -0.1227
     20  CA        -7.8100    0.9040  -26.5480 C.3   140  PHE140      0.1736
     21  C         -9.0000    1.0930  -27.4870 C.2   140  PHE140      0.2595
     22  O         -9.6720    2.0970  -27.4440 O.2   140  PHE140     -0.2718
     23  CB        -8.3520    0.6390  -25.1270 C.3   140  PHE140      0.0547
     24  CG        -7.3490    0.0350  -24.1740 C.ar  140  PHE140     -0.0202
     25  CD1       -7.0290    0.6850  -22.9840 C.ar  140  PHE140     -0.0042
     26  CD2       -6.7540   -1.1960  -24.4390 C.ar  140  PHE140     -0.0042
     27  CE1       -6.1150    0.1250  -22.0850 C.ar  140  PHE140     -0.0003
     28  CE2       -5.8380   -1.7560  -23.5220 C.ar  140  PHE140     -0.0003
     29  CZ        -5.5440   -1.1070  -22.3380 C.ar  140  PHE140     -0.0000
     30  N         -9.2480    0.1300  -28.3390 N.am  141  LEU141     -0.1966
     31  CA       -10.4330    0.1380  -29.2180 C.3   141  LEU141      0.1728
     32  C        -11.4470   -0.8650  -28.6380 C.2   141  LEU141      0.2616
     33  O        -11.2060   -1.4070  -27.5370 O.2   141  LEU141     -0.2715
     34  CB       -10.0700   -0.2060  -30.6960 C.3   141  LEU141      0.0311
     35  CG        -9.0890    0.7460  -31.4120 C.3   141  LEU141      0.0022
     36  CD1       -8.9090    0.3350  -32.8500 C.3   141  LEU141      0.0001
     37  CD2       -9.4880    2.2110  -31.3690 C.3   141  LEU141      0.0001
     38  N        -12.5530   -1.1150  -29.3310 N.am  142  ASN142     -0.1958
     39  CA       -13.5500   -1.9710  -28.7620 C.3   142  ASN142      0.1819
     40  C        -13.0960   -3.4220  -28.8980 C.2   142  ASN142      0.2622
     41  O        -12.3850   -3.7630  -29.8490 O.2   142  ASN142     -0.2715
     42  CB       -14.9090   -1.7060  -29.4020 C.3   142  ASN142      0.1195
     43  CG       -16.0570   -2.4200  -28.6640 C.2   142  ASN142      0.2630
     44  OD1      -16.6630   -3.3940  -29.1930 O.2   142  ASN142     -0.2716
     45  ND2      -16.3530   -1.9610  -27.4370 N.am  142  ASN142     -0.0877
     46  N        -13.4630   -4.2680  -27.9250 N.am  143  GLY143     -0.1940
     47  CA       -12.9580   -5.6560  -27.8220 C.3   143  GLY143      0.2014
     48  C        -11.6230   -5.7770  -27.0830 C.2   143  GLY143      0.2640
     49  O        -11.0760   -6.8440  -26.9700 O.2   143  GLY143     -0.2714
     50  N        -11.1130   -4.6730  -26.5650 N.am  144  SER144     -0.1935
     51  CA        -9.8720   -4.6660  -25.8160 C.3   144  SER144      0.2055
     52  C        -10.0060   -5.0430  -24.3010 C.2   144  SER144      0.2643
     53  O         -8.9930   -5.3830  -23.6360 O.2   144  SER144     -0.2714
     54  CB        -9.1530   -3.3090  -25.9840 C.3   144  SER144      0.2130
     55  OG        -9.8770   -2.2200  -25.4260 O.3   144  SER144     -0.2179
     56  N        -11.2080   -5.0340  -23.7680 N.am  145  CYS145     -0.1967
     57  CA       -11.3260   -5.2900  -22.3840 C.3   145  CYS145      0.1712
     58  C        -11.0110   -6.7390  -22.0520 C.2   145  CYS145      0.2296
     59  O        -11.0910   -7.6120  -22.9270 O.2   145  CYS145     -0.2864
     60  CB       -12.5230   -4.5710  -21.7110 C.3   145  CYS145      0.0983
     61  SG       -14.1900   -5.0850  -22.1790 S.3   145  CYS145     -0.0798
     62  N         -8.4360   -4.5040  -18.0760 N.3   163  HIS163     -0.1226
     63  CA        -9.0920   -3.3500  -18.6340 C.3   163  HIS163      0.1752
     64  C        -10.5830   -3.5770  -18.6810 C.2   163  HIS163      0.2596
     65  O        -11.0440   -4.6660  -19.1300 O.2   163  HIS163     -0.2718
     66  CB        -8.5300   -3.0380  -20.0490 C.3   163  HIS163      0.0759
     67  CG        -9.1570   -1.8320  -20.6730 C.ar  163  HIS163      0.0818
     68  ND1       -9.0740   -0.5780  -20.1080 N.ar  163  HIS163     -0.2268
     69  CD2       -9.9070   -1.6960  -21.7840 C.ar  163  HIS163      0.1154
     70  CE1       -9.7670    0.2720  -20.8390 C.ar  163  HIS163      0.1986
     71  NE2      -10.2720   -0.3820  -21.8680 N.ar  163  HIS163     -0.2212
     72  N        -11.3350   -2.5690  -18.1960 N.am  164  HIS164     -0.1961
     73  CA       -12.8440   -2.6120  -18.2230 C.3   164  HIS164      0.1787
     74  C        -13.4720   -1.5160  -19.1470 C.2   164  HIS164      0.2620
     75  O        -14.2910   -1.8180  -20.0170 O.2   164  HIS164     -0.2715
     76  CB       -13.4690   -2.6500  -16.8080 C.3   164  HIS164      0.0785
     77  CG       -13.1870   -3.9110  -16.0330 C.ar  164  HIS164      0.0821
     78  ND1      -14.1900   -4.7370  -15.5660 N.ar  164  HIS164     -0.2267
     79  CD2      -12.0210   -4.4680  -15.6050 C.ar  164  HIS164      0.1154
     80  CE1      -13.6610   -5.7570  -14.9050 C.ar  164  HIS164      0.1986
     81  NE2      -12.3450   -5.6240  -14.9220 N.ar  164  HIS164     -0.2212
     82  N        -13.0570   -0.2650  -19.0120 N.am  165  MET165     -0.1963
     83  CA       -13.7520    0.7660  -19.7830 C.3   165  MET165      0.1736
     84  C        -12.9690    2.0310  -20.1240 C.2   165  MET165      0.2616
     85  O        -11.8720    2.3070  -19.5430 O.2   165  MET165     -0.2715
     86  CB       -15.0330    1.1590  -19.0390 C.3   165  MET165      0.0427
     87  CG       -14.8060    2.1550  -17.9130 C.3   165  MET165      0.0599
     88  SD       -16.1170    2.0270  -16.6760 S.3   165  MET165     -0.1393
     89  CE       -15.6980    3.4660  -15.7370 C.3   165  MET165      0.0692
     90  N        -13.6000    2.8050  -21.0290 N.am  166  GLU166     -0.1963
     91  CA       -13.2190    4.1530  -21.4360 C.3   166  GLU166      0.1733
     92  C        -14.1580    5.2470  -20.9210 C.2   166  GLU166      0.2616
     93  O        -15.3980    5.0960  -21.0110 O.2   166  GLU166     -0.2715
     94  CB       -13.1760    4.2740  -22.9580 C.3   166  GLU166      0.0429
     95  CG       -12.4370    5.5830  -23.3850 C.3   166  GLU166      0.1163
     96  CD       -12.1060    5.6350  -24.8560 C.2   166  GLU166      0.3649
     97  OE1      -12.7760    6.3740  -25.5930 O.co2 166  GLU166     -0.2457
     98  OE2      -11.1670    4.9640  -25.3000 O.co2 166  GLU166     -0.2457
     99  N        -13.5570    6.3680  -20.4940 N.am  167  LEU167     -0.1964
    100  CA       -14.2500    7.5290  -19.9400 C.3   167  LEU167      0.1713
    101  C        -14.4790    8.6490  -20.9610 C.2   167  LEU167      0.2458
    102  O        -13.8540    8.6620  -22.0240 O.2   167  LEU167     -0.2730
    103  CB       -13.5020    8.0540  -18.6930 C.3   167  LEU167      0.0310
    104  CG       -13.3840    7.1200  -17.4390 C.3   167  LEU167      0.0022
    105  CD1      -12.4180    7.7040  -16.4000 C.3   167  LEU167      0.0001
    106  CD2      -14.7430    6.7360  -16.7770 C.3   167  LEU167      0.0001
    107  N        -15.3790    9.6200  -20.6400 N.am  168  PRO168     -0.2727
    108  CA       -15.7160   10.6930  -21.6130 C.3   168  PRO168      0.1402
    109  C        -14.5000   11.4550  -22.1670 C.2   168  PRO168      0.2269
    110  O        -14.5370   11.9070  -23.3240 O.2   168  PRO168     -0.2865
    111  CB       -16.6270   11.6520  -20.8100 C.3   168  PRO168      0.0296
    112  CG       -17.2010   10.8300  -19.7170 C.3   168  PRO168      0.0237
    113  CD       -16.1210    9.7930  -19.3690 C.3   168  PRO168      0.0939
    114  N        -11.5770   10.1490  -22.7480 N.3   170  GLY170     -0.1225
    115  CA       -10.7580    9.2810  -23.5490 C.3   170  GLY170      0.1811
    116  C         -9.6420    8.6150  -22.7740 C.2   170  GLY170      0.2280
    117  O         -8.7290    8.0840  -23.3890 O.2   170  GLY170     -0.2866
    118  N         -8.7810    5.7110  -19.4330 N.3   172  HIS172     -0.1241
    119  CA        -9.1550    4.3250  -19.2530 C.3   172  HIS172      0.1621
    120  C         -9.2670    3.8790  -17.8140 C.2   172  HIS172      0.2264
    121  O         -8.5900    4.4110  -16.9290 O.2   172  HIS172     -0.2867
    122  CB        -8.2100    3.4540  -20.0650 C.3   172  HIS172      0.0745
    123  CG        -8.2630    3.7760  -21.5240 C.ar  172  HIS172      0.0817
    124  ND1       -7.3060    4.5320  -22.1520 N.ar  172  HIS172     -0.2268
    125  CD2       -9.2010    3.5110  -22.4620 C.ar  172  HIS172      0.1154
    126  CE1       -7.6270    4.6790  -23.4290 C.ar  172  HIS172      0.1986
    127  NE2       -8.7680    4.0600  -23.6450 N.ar  172  HIS172     -0.2212
    128  N        -18.6470   -0.7200  -13.1820 N.3   187  ASP187     -0.1225
    129  CA       -18.8550   -1.4210  -14.4390 C.3   187  ASP187      0.1805
    130  C        -20.3370   -1.4180  -14.7290 C.2   187  ASP187      0.2598
    131  O        -21.0020   -2.4790  -14.8150 O.2   187  ASP187     -0.2718
    132  CB       -18.2110   -2.8500  -14.4490 C.3   187  ASP187      0.1424
    133  CG       -18.6630   -3.7910  -13.2540 C.2   187  ASP187      0.3668
    134  OD1      -19.3180   -3.3640  -12.2520 O.co2 187  ASP187     -0.2456
    135  OD2      -18.3190   -5.0040  -13.3460 O.co2 187  ASP187     -0.2456
    136  N        -20.8560   -0.1940  -14.7940 N.am  188  ARG188     -0.1966
    137  CA       -22.1410    0.1070  -15.4090 C.3   188  ARG188      0.1729
    138  C        -22.0010    1.2900  -16.3750 C.2   188  ARG188      0.2616
    139  O        -21.1380    2.1480  -16.2130 O.2   188  ARG188     -0.2715
    140  CB       -23.2890    0.3100  -14.3810 C.3   188  ARG188      0.0348
    141  CG       -22.8780    0.9820  -13.0880 C.3   188  ARG188      0.0492
    142  CD       -23.7020    0.6110  -11.8280 C.3   188  ARG188      0.2205
    143  NE       -23.2860    1.5090  -10.7300 N.pl3 188  ARG188     -0.0865
    144  CZ       -23.8830    1.6800   -9.5420 C.cat 188  ARG188      0.5346
    145  NH1      -23.3540    2.5550   -8.6760 N.pl3 188  ARG188      0.1354
    146  NH2      -24.9890    0.9990   -9.2090 N.pl3 188  ARG188      0.1354
    147  N        -22.8400    1.2770  -17.4010 N.am  189  GLN189     -0.1963
    148  CA       -23.0270    2.3760  -18.3410 C.3   189  GLN189      0.1733
    149  C        -23.7990    3.5310  -17.6730 C.2   189  GLN189      0.2617
    150  O        -25.0300    3.6320  -17.7650 O.2   189  GLN189     -0.2715
    151  CB       -23.7480    1.8560  -19.6130 C.3   189  GLN189      0.0408
    152  CG       -24.2790    2.9290  -20.5780 C.3   189  GLN189      0.0908
    153  CD       -23.5010    4.2290  -20.4800 C.2   189  GLN189      0.2608
    154  OE1      -24.2020    5.3260  -20.1640 O.2   189  GLN189     -0.2717
    155  NE2      -22.2840    4.2460  -20.6670 N.am  189  GLN189     -0.0878
    156  N        -23.0700    4.4080  -17.0050 N.am  190  THR190     -0.1937
    157  CA       -23.6800    5.5120  -16.2720 C.3   190  THR190      0.2028
    158  C        -22.7850    6.7490  -16.3900 C.2   190  THR190      0.2642
    159  O        -21.7010    6.6490  -16.9600 O.2   190  THR190     -0.2714
    160  CB       -23.9890    5.0790  -14.7920 C.3   190  THR190      0.1808
    161  OG1      -24.7300    6.1140  -14.1250 O.3   190  THR190     -0.2208
    162  CG2      -22.6960    4.6990  -14.0060 C.3   190  THR190      0.0379
    163  N        -23.2260    7.9040  -15.8980 N.am  191  ALA191     -0.1963
    164  CA       -22.3710    9.1140  -15.9500 C.3   191  ALA191      0.1728
    165  C        -21.2780    9.0940  -14.8730 C.2   191  ALA191      0.2616
    166  O        -21.5630    9.2220  -13.6730 O.2   191  ALA191     -0.2715
    167  CB       -23.2030   10.4330  -15.8830 C.3   191  ALA191      0.0334
    168  N        -20.0370    8.8920  -15.3240 N.am  192  GLN192     -0.1977
    169  CA       -18.8460    8.8750  -14.4770 C.3   192  GLN192      0.1601
    170  C        -17.7520    9.5950  -15.2220 C.2   192  GLN192      0.2287
    171  O        -17.7080    9.5690  -16.4490 O.2   192  GLN192     -0.2864
    172  CB       -18.3580    7.4620  -14.2110 C.3   192  GLN192      0.0394
    173  CG       -19.4200    6.3920  -14.1580 C.3   192  GLN192      0.0908
    174  CD       -18.7890    5.0390  -13.9880 C.2   192  GLN192      0.2608
    175  OE1      -17.8110    4.8980  -13.2330 O.2   192  GLN192     -0.2717
    176  NE2      -19.3180    4.0290  -14.7010 N.am  192  GLN192     -0.0878
@<TRIPOS>BOND
     1    36    35    1
     2    35    37    1
     3    35    34    1
     4    34    31    1
     5    41    40    2
     6    42    39    1
     7    42    43    1
     8    38    39    1
     9    38    32   am
    10    31    32    1
    11    31    30    1
    12    44    43    2
    13    40    39    1
    14    40    46   am
    15    43    45   am
    16    32    33    2
    17    30    21   am
    18    46    47    1
    19    47    48    1
    20    21    22    2
    21    21    20    1
    22    48    49    2
    23    48    50   am
    24    19    20    1
    25    50    51    1
    26    20    23    1
    27    54    51    1
    28    54    55    1
    29    51    52    1
    30    97    96   ar
    31    98    96   ar
    32    23    24    1
    33    96    95    1
    34    26    24   ar
    35    26    28   ar
    36    52    56   am
    37    52    53    2
    38    24    25   ar
    39    56    57    1
    40   127   126   ar
    41   127   125   ar
    42   115   116    1
    43   115   114    1
    44    28    29   ar
    45   126   124   ar
    46   117   116    2
    47    95    94    1
    48   110   109    2
    49    25    27   ar
    50    94    91    1
    51    59    58    2
    52   125   123   ar
    53    57    58    1
    54    57    60    1
    55    29    27   ar
    56    61    60    1
    57   109   108    1
    58   124   123   ar
    59   102   101    2
    60    71    69   ar
    61    71    70   ar
    62    69    67   ar
    63   108   111    1
    64   108   107    1
    65   123   122    1
    66    91    90    1
    67    91    92    1
    68    90    84   am
    69    93    92    2
    70   101   107   am
    71   101   100    1
    72    92    99   am
    73    70    68   ar
    74   111   112    1
    75    67    68   ar
    76    67    66    1
    77   155   153   am
    78   107   113    1
    79   152   153    1
    80   152   151    1
    81    99   100    1
    82   153   154    2
    83    10     8   ar
    84    10     9   ar
    85    16    15    1
    86    16    17    1
    87     8     6   ar
    88    84    83    1
    89    84    85    2
    90     4     3    2
    91   122   119    1
    92    66    63    1
    93    75    74    2
    94   100   103    1
    95    15    12    1
    96    83    86    1
    97    83    82    1
    98   112   113    1
    99   151   148    1
   100   118   119    1
   101    11    12    1
   102     9     7   ar
   103   119   120    1
   104     3     2    1
   105    74    82   am
   106    74    73    1
   107    65    64    2
   108    17    18    1
   109    86    87    1
   110     6     7   ar
   111     6     5    1
   112    12    13    1
   113   103   104    1
   114    64    63    1
   115    64    72   am
   116    63    62    1
   117   148   149    1
   118   148   147    1
   119    73    72    1
   120    73    76    1
   121     5     2    1
   122    13    14    2
   123     2     1    1
   124    87    88    1
   125   120   121    2
   126   150   149    2
   127   149   156   am
   128   104   106    1
   129   104   105    1
   130   147   138   am
   131   156   157    1
   132   159   158    2
   133    76    77    1
   134    88    89    1
   135   171   170    2
   136   158   157    1
   137   158   163   am
   138   138   139    2
   139   138   137    1
   140   157   160    1
   141    77    79   ar
   142    77    78   ar
   143   164   163    1
   144   164   167    1
   145   164   165    1
   146    79    81   ar
   147    78    80   ar
   148   137   136    1
   149   137   140    1
   150   168   165   am
   151   168   169    1
   152   170   169    1
   153    81    80   ar
   154   165   166    2
   155   131   130    2
   156   136   130   am
   157   160   161    1
   158   160   162    1
   159   130   129    1
   160   176   174   am
   161   169   172    1
   162   132   129    1
   163   132   133    1
   164   129   128    1
   165   140   141    1
   166   172   173    1
   167   173   174    1
   168   174   175    2
   169   135   133   ar
   170   133   134   ar
   171   141   142    1
   172   142   143    1
   173   143   144    2
   174   144   146    1
   175   144   145    1
