@<TRIPOS>MOLECULE
tmp/2z3fE00.pdb
 126 126 0 0 0
SMALL
GASTEIGER

@<TRIPOS>ATOM
      1  N        144.2940   54.4080   24.0760 N.3    26  THR26      -0.1203
      2  CA       145.7570   54.3910   24.0280 C.3    26  THR26       0.1994
      3  C        146.2750   55.5400   24.8800 C.2    26  THR26       0.2617
      4  O        145.7990   56.6820   24.7250 O.2    26  THR26      -0.2717
      5  CB       146.1760   54.5510   22.6080 C.3    26  THR26       0.1784
      6  OG1      145.6700   53.4290   21.8740 O.3    26  THR26      -0.2211
      7  CG2      147.6570   54.4380   22.4610 C.3    26  THR26       0.0376
      8  N        147.1770   55.2250   25.8190 N.am   27  PHE27      -0.1975
      9  CA       147.6680   56.2110   26.8080 C.3    27  PHE27       0.1639
     10  C        149.1710   56.0900   27.0680 C.2    27  PHE27       0.2290
     11  O        149.7860   55.0220   26.8630 O.2    27  PHE27      -0.2864
     12  CB       146.9340   56.0750   28.1450 C.3    27  PHE27       0.0560
     13  CG       147.2400   54.7990   28.8620 C.ar   27  PHE27      -0.0200
     14  CD1      148.1630   54.7530   29.8800 C.ar   27  PHE27      -0.0042
     15  CD2      146.6300   53.6260   28.4850 C.ar   27  PHE27      -0.0042
     16  CE1      148.4330   53.5620   30.5130 C.ar   27  PHE27      -0.0003
     17  CE2      146.8960   52.4520   29.1240 C.ar   27  PHE27      -0.0003
     18  CZ       147.7950   52.4170   30.1220 C.ar   27  PHE27      -0.0000
     19  N        146.7350   50.3090   40.0760 N.3    36  ASP36      -0.1239
     20  CA       146.0880   50.2790   38.7660 C.3    36  ASP36       0.1674
     21  C        145.3550   51.5880   38.4110 C.2    36  ASP36       0.2266
     22  O        145.0180   52.4330   39.2820 O.2    36  ASP36      -0.2867
     23  CB       145.0530   49.1510   38.7490 C.3    36  ASP36       0.1410
     24  CG       145.6530   47.7710   38.9750 C.2    36  ASP36       0.3668
     25  OD1      146.8330   47.5530   38.6720 O.co2  36  ASP36      -0.2456
     26  OD2      144.9890   46.8260   39.4180 O.co2  36  ASP36      -0.2456
     27  N        136.4810   49.6000   35.0180 N.3    59  LEU59      -0.1231
     28  CA       137.4520   48.6140   34.5920 C.3    59  LEU59       0.1693
     29  C        138.7980   48.9970   35.1980 C.2    59  LEU59       0.2592
     30  O        139.1810   50.1650   35.1720 O.2    59  LEU59      -0.2718
     31  CB       137.5460   48.5810   33.0830 C.3    59  LEU59       0.0284
     32  CG       138.6530   47.7700   32.4150 C.3    59  LEU59       0.0019
     33  CD1      138.5270   46.2970   32.7000 C.3    59  LEU59       0.0001
     34  CD2      138.5970   47.9760   30.9040 C.3    59  LEU59       0.0001
     35  N        139.4760   48.0170   35.8080 N.am   60  LEU60      -0.1966
     36  CA       140.7960   48.2190   36.3590 C.3    60  LEU60       0.1728
     37  C        141.7630   47.8060   35.2710 C.2    60  LEU60       0.2616
     38  O        141.6420   46.6990   34.7280 O.2    60  LEU60      -0.2715
     39  CB       141.0050   47.3880   37.6060 C.3    60  LEU60       0.0311
     40  CG       140.1270   47.7490   38.7950 C.3    60  LEU60       0.0022
     41  CD1      140.2150   46.6550   39.8700 C.3    60  LEU60       0.0001
     42  CD2      140.4610   49.1330   39.4030 C.3    60  LEU60       0.0001
     43  N        142.6940   48.7160   34.9490 N.am   61  VAL61      -0.1963
     44  CA       143.8300   48.4620   34.0510 C.3    61  VAL61       0.1730
     45  C        145.1520   48.5170   34.8510 C.2    61  VAL61       0.2656
     46  O        145.4290   49.5400   35.5220 O.2    61  VAL61      -0.2711
     47  CB       143.8670   49.5260   32.9240 C.3    61  VAL61       0.0290
     48  CG1      144.9760   49.2280   31.9090 C.3    61  VAL61       0.0023
     49  CG2      142.5270   49.5780   32.2130 C.3    61  VAL61       0.0023
     50  N        145.9290   47.4190   34.7840 N.am   62  GLY62      -0.1717
     51  CA       147.2090   47.2450   35.5130 C.2    62  GLY62       0.1465
     52  C        147.9020   45.8580   35.4300 C.2    62  GLY62       0.2662
     53  O        147.3200   44.8760   34.9440 O.2    62  GLY62      -0.2684
     54  N        149.1630   45.7400   35.8380 N.am   63  PRO63      -0.2683
     55  CA       150.0170   46.8610   36.2460 C.3    63  PRO63       0.1538
     56  C        150.4410   47.6740   35.0070 C.2    63  PRO63       0.2598
     57  O        150.6600   47.1120   33.9010 O.2    63  PRO63      -0.2715
     58  CB       151.2560   46.1560   36.8320 C.3    63  PRO63       0.0310
     59  CG       151.3330   44.8550   36.0690 C.3    63  PRO63       0.0237
     60  CD       149.8900   44.4530   35.8770 C.3    63  PRO63       0.0942
     61  N        150.5490   48.9790   35.2150 N.am   64  ILE64      -0.1964
     62  CA       150.8590   49.9460   34.1620 C.3    64  ILE64       0.1712
     63  C        152.3120   49.8640   33.7060 C.2    64  ILE64       0.2458
     64  O        153.2110   50.3300   34.4120 O.2    64  ILE64      -0.2730
     65  CB       150.6200   51.4150   34.6960 C.3    64  ILE64       0.0289
     66  CG1      149.1990   51.6380   35.2760 C.3    64  ILE64       0.0022
     67  CG2      150.8800   52.4310   33.5930 C.3    64  ILE64       0.0023
     68  CD1      148.0550   51.2930   34.3100 C.3    64  ILE64       0.0001
     69  N        152.5900   49.3030   32.5430 N.am   65  PRO65      -0.2716
     70  CA       153.9330   49.4320   32.0250 C.3    65  PRO65       0.1536
     71  C        154.2260   50.9130   31.8600 C.2    65  PRO65       0.2598
     72  O        153.3200   51.7280   32.0360 O.2    65  PRO65      -0.2715
     73  CB       153.8760   48.6860   30.6830 C.3    65  PRO65       0.0310
     74  CG       152.7660   47.7370   30.8220 C.3    65  PRO65       0.0237
     75  CD       151.7630   48.5020   31.6350 C.3    65  PRO65       0.0939
     76  N        155.4820   51.2570   31.5660 N.am   66  ILE66      -0.1978
     77  CA       155.8550   52.6370   31.2910 C.3    66  ILE66       0.1596
     78  C        155.9170   52.7500   29.7740 C.2    66  ILE66       0.2287
     79  O        156.2080   51.7710   29.0620 O.2    66  ILE66      -0.2864
     80  CB       157.1680   52.9410   31.9770 C.3    66  ILE66       0.0276
     81  CG1      156.8670   53.4030   33.3890 C.3    66  ILE66       0.0022
     82  CG2      158.0090   53.9960   31.2090 C.3    66  ILE66       0.0022
     83  CD1      158.0440   53.3250   34.2490 C.3    66  ILE66       0.0001
     84  N        154.0010   53.4540   26.2130 N.3    68  ILE68      -0.1231
     85  CA       152.8110   53.6370   25.3910 C.3    68  ILE68       0.1692
     86  C        151.9750   52.3580   25.3270 C.2    68  ILE68       0.2592
     87  O        152.3960   51.3300   24.7670 O.2    68  ILE68      -0.2718
     88  CB       153.1840   54.1160   23.9530 C.3    68  ILE68       0.0266
     89  CG1      154.0420   55.3920   23.9670 C.3    68  ILE68       0.0019
     90  CG2      151.9090   54.3800   23.1210 C.3    68  ILE68       0.0020
     91  CD1      153.4490   56.5950   24.7560 C.3    68  ILE68       0.0001
     92  N        150.7520   52.4560   25.8370 N.am   69  ASN69      -0.1960
     93  CA       149.9080   51.2780   26.0180 C.3    69  ASN69       0.1819
     94  C        148.4870   51.4580   25.5200 C.2    69  ASN69       0.2621
     95  O        147.9430   52.5720   25.5760 O.2    69  ASN69      -0.2715
     96  CB       149.8930   50.9540   27.5090 C.3    69  ASN69       0.1195
     97  CG       151.2930   50.8810   28.0950 C.2    69  ASN69       0.2630
     98  OD1      152.1330   50.0730   27.6340 O.2    69  ASN69      -0.2716
     99  ND2      151.5610   51.7410   29.1050 N.am   69  ASN69      -0.0877
    100  N        147.8760   50.3630   25.0730 N.am   70  LYS70      -0.1963
    101  CA       146.4390   50.3440   24.7190 C.3    70  LYS70       0.1728
    102  C        145.6550   49.1760   25.3600 C.2    70  LYS70       0.2616
    103  O        146.2270   48.1510   25.6910 O.2    70  LYS70      -0.2715
    104  CB       146.2970   50.2790   23.2120 C.3    70  LYS70       0.0311
    105  CG       146.5330   48.8990   22.6450 C.3    70  LYS70       0.0038
    106  CD       146.5140   48.9780   21.1250 C.3    70  LYS70       0.0206
    107  CE       146.9370   47.6640   20.4720 C.3    70  LYS70       0.1093
    108  NZ       146.2310   47.5400   19.1870 N.3    70  LYS70      -0.1314
    109  N        144.3490   49.3450   25.5390 N.am   71  PHE71      -0.1960
    110  CA       143.4380   48.2570   25.9520 C.3    71  PHE71       0.1771
    111  C        142.0090   48.4970   25.4080 C.2    71  PHE71       0.2619
    112  O        141.6830   49.5650   24.8720 O.2    71  PHE71      -0.2715
    113  CB       143.3840   48.1770   27.4590 C.3    71  PHE71       0.0574
    114  CG       142.8390   49.4110   28.1090 C.ar   71  PHE71      -0.0200
    115  CD1      141.5770   49.4150   28.6550 C.ar   71  PHE71      -0.0042
    116  CD2      143.5690   50.5750   28.1560 C.ar   71  PHE71      -0.0042
    117  CE1      141.0580   50.5510   29.2570 C.ar   71  PHE71      -0.0003
    118  CE2      143.0420   51.7110   28.7840 C.ar   71  PHE71      -0.0003
    119  CZ       141.7820   51.6870   29.3340 C.ar   71  PHE71      -0.0000
    120  N        141.1380   47.5200   25.5480 N.am   72  VAL72      -0.1977
    121  CA       139.7680   47.7330   25.1470 C.3    72  VAL72       0.1596
    122  C        138.8410   47.8560   26.3920 C.2    72  VAL72       0.2287
    123  O        138.8120   46.9710   27.2410 O.2    72  VAL72      -0.2864
    124  CB       139.2910   46.6210   24.2450 C.3    72  VAL72       0.0276
    125  CG1      137.7650   46.7510   24.0070 C.3    72  VAL72       0.0022
    126  CG2      140.0130   46.6660   22.9320 C.3    72  VAL72       0.0022
@<TRIPOS>BOND
     1   108   107    1
     2   107   106    1
     3   106   105    1
     4     6     5    1
     5     7     5    1
     6     5     2    1
     7   105   104    1
     8   126   124    1
     9    90    88    1
    10   104   101    1
    11    88    89    1
    12    88    85    1
    13    89    91    1
    14   125   124    1
    15     2     1    1
    16     2     3    1
    17   124   121    1
    18   101   100    1
    19   101   102    1
    20     4     3    2
    21    87    86    2
    22   112   111    2
    23     3     8   am
    24   100    94   am
    25   121   120    1
    26   121   122    1
    27    86    85    1
    28    86    92   am
    29   102   109   am
    30   102   103    2
    31    85    84    1
    32   111   120   am
    33   111   110    1
    34    94    95    2
    35    94    93    1
    36   109   110    1
    37     8     9    1
    38    92    93    1
    39   110   113    1
    40    93    96    1
    41   122   123    2
    42     9    10    1
    43     9    12    1
    44    11    10    2
    45   113   114    1
    46    96    97    1
    47    98    97    2
    48    97    99   am
    49   114   116   ar
    50   114   115   ar
    51    12    13    1
    52   116   118   ar
    53    15    13   ar
    54    15    17   ar
    55   115   117   ar
    56   118   119   ar
    57    13    14   ar
    58    79    78    2
    59    17    18   ar
    60   117   119   ar
    61    78    77    1
    62    14    16   ar
    63    18    16   ar
    64    73    74    1
    65    73    70    1
    66    74    75    1
    67    34    32    1
    68    82    80    1
    69    77    76    1
    70    77    80    1
    71    76    71   am
    72    75    69    1
    73    71    70    1
    74    71    72    2
    75    48    47    1
    76    80    81    1
    77    70    69    1
    78    49    47    1
    79    32    33    1
    80    32    31    1
    81    69    63   am
    82    47    44    1
    83    31    28    1
    84    81    83    1
    85    67    65    1
    86    63    62    1
    87    63    64    2
    88    57    56    2
    89    44    45    1
    90    44    43    1
    91    62    65    1
    92    62    61    1
    93    68    66    1
    94    28    27    1
    95    28    29    1
    96    65    66    1
    97    38    37    2
    98    50    45    1
    99    50    51    2
   100    45    46    2
   101    53    52    2
   102    43    37   am
   103    56    61   am
   104    56    55    1
   105    30    29    2
   106    29    35   am
   107    37    36    1
   108    52    51    1
   109    52    54   am
   110    35    36    1
   111    54    60    1
   112    54    55    1
   113    60    59    1
   114    59    58    1
   115    55    58    1
   116    36    39    1
   117    39    40    1
   118    21    20    1
   119    21    22    2
   120    25    24   ar
   121    23    20    1
   122    23    24    1
   123    20    19    1
   124    40    42    1
   125    40    41    1
   126    24    26   ar
