@<TRIPOS>MOLECULE
tmp/2z3fO00.pdb
 153 154 0 0 0
SMALL
GASTEIGER

@<TRIPOS>ATOM
      1  N        150.3350   97.8630    3.8290 N.3    26  THR26      -0.1203
      2  CA       151.7120   97.3760    3.9070 C.3    26  THR26       0.1994
      3  C        151.8250   96.1470    3.0340 C.2    26  THR26       0.2617
      4  O        150.9850   95.2820    3.0970 O.2    26  THR26      -0.2717
      5  CB       152.0610   96.9620    5.3940 C.3    26  THR26       0.1784
      6  OG1      152.0130   98.1000    6.2540 O.3    26  THR26      -0.2211
      7  CG2      153.4680   96.5350    5.5240 C.3    26  THR26       0.0376
      8  N        152.8810   96.0290    2.2510 N.am   27  PHE27      -0.1975
      9  CA       152.9750   94.9280    1.2650 C.3    27  PHE27       0.1639
     10  C        154.4130   94.5660    0.9670 C.2    27  PHE27       0.2290
     11  O        155.2940   95.3280    1.2540 O.2    27  PHE27      -0.2864
     12  CB       152.2980   95.3440   -0.0360 C.3    27  PHE27       0.0560
     13  CG       152.9710   96.5380   -0.7550 C.ar   27  PHE27      -0.0200
     14  CD1      153.9170   96.3260   -1.7550 C.ar   27  PHE27      -0.0042
     15  CD2      152.6250   97.8570   -0.4520 C.ar   27  PHE27      -0.0042
     16  CE1      154.5070   97.4060   -2.4050 C.ar   27  PHE27      -0.0003
     17  CE2      153.2180   98.9220   -1.1090 C.ar   27  PHE27      -0.0003
     18  CZ       154.1450   98.7040   -2.0750 C.ar   27  PHE27      -0.0000
     19  N        153.7380  101.1200  -12.2420 N.3    36  ASP36      -0.1239
     20  CA       153.1190  101.4570  -10.9700 C.3    36  ASP36       0.1674
     21  C        152.0880  100.4180  -10.5310 C.2    36  ASP36       0.2266
     22  O        151.4640   99.7670  -11.3830 O.2    36  ASP36      -0.2867
     23  CB       152.3750  102.7730  -11.1200 C.3    36  ASP36       0.1410
     24  CG       153.3000  103.9960  -11.1540 C.2    36  ASP36       0.3668
     25  OD1      154.4140  103.9320  -10.5860 O.co2  36  ASP36      -0.2456
     26  OD2      152.9530  105.0760  -11.7110 O.co2  36  ASP36      -0.2456
     27  N        137.5050  105.4900   -5.6840 N.3    57  ASP57      -0.1225
     28  CA       138.7000  106.2630   -5.9380 C.3    57  ASP57       0.1805
     29  C        139.7410  105.2940   -6.3940 C.2    57  ASP57       0.2598
     30  O        139.6010  104.0720   -6.1660 O.2    57  ASP57      -0.2718
     31  CB       139.2060  106.9480   -4.6500 C.3    57  ASP57       0.1424
     32  CG       139.0960  108.4720   -4.7010 C.2    57  ASP57       0.3668
     33  OD1      139.3250  109.0270   -5.8300 O.co2  57  ASP57      -0.2456
     34  OD2      138.7750  109.1770   -3.6870 O.co2  57  ASP57      -0.2456
     35  N        140.7970  105.8400   -6.9940 N.am   58  THR58      -0.1939
     36  CA       141.9900  105.0590   -7.3660 C.3    58  THR58       0.2028
     37  C        143.2640  105.7900   -6.9910 C.2    58  THR58       0.2642
     38  O        143.2730  106.9770   -6.7450 O.2    58  THR58      -0.2714
     39  CB       142.0700  104.8110   -8.8330 C.3    58  THR58       0.1808
     40  OG1      142.0060  106.0910   -9.4730 O.3    58  THR58      -0.2208
     41  CG2      140.8850  104.0250   -9.3110 C.3    58  THR58       0.0379
     42  N        144.3450  105.0410   -6.9490 N.am   59  LEU59      -0.1963
     43  CA       145.6110  105.5340   -6.4190 C.3    59  LEU59       0.1728
     44  C        146.7170  104.7760   -7.1380 C.2    59  LEU59       0.2616
     45  O        146.7220  103.5580   -7.1460 O.2    59  LEU59      -0.2715
     46  CB       145.7010  105.3550   -4.9020 C.3    59  LEU59       0.0311
     47  CG       146.9670  105.9230   -4.2910 C.3    59  LEU59       0.0022
     48  CD1      147.0000  107.4000   -4.5100 C.3    59  LEU59       0.0001
     49  CD2      147.1020  105.6490   -2.7820 C.3    59  LEU59       0.0001
     50  N        147.6260  105.5100   -7.7760 N.am   60  LEU60      -0.1963
     51  CA       148.8300  104.9210   -8.3580 C.3    60  LEU60       0.1728
     52  C        149.9300  104.9190   -7.3050 C.2    60  LEU60       0.2616
     53  O        150.1040  105.8840   -6.5360 O.2    60  LEU60      -0.2715
     54  CB       149.2690  105.6950   -9.6010 C.3    60  LEU60       0.0311
     55  CG       148.3100  105.6590  -10.7950 C.3    60  LEU60       0.0022
     56  CD1      148.7540  106.6080  -11.8570 C.3    60  LEU60       0.0001
     57  CD2      148.1470  104.2460  -11.3700 C.3    60  LEU60       0.0001
     58  N        150.6580  103.8130   -7.2460 N.am   61  VAL61      -0.1963
     59  CA       151.7190  103.6820   -6.2450 C.3    61  VAL61       0.1730
     60  C        153.0020  103.2110   -6.8750 C.2    61  VAL61       0.2656
     61  O        153.0680  102.1330   -7.4700 O.2    61  VAL61      -0.2711
     62  CB       151.3300  102.7630   -5.1020 C.3    61  VAL61       0.0290
     63  CG1      152.5070  102.5910   -4.1440 C.3    61  VAL61       0.0023
     64  CG2      150.1280  103.3490   -4.3500 C.3    61  VAL61       0.0023
     65  N        154.0340  104.0290   -6.6960 N.am   62  GLY62      -0.1717
     66  CA       155.2890  103.8690   -7.4260 C.2    62  GLY62       0.1465
     67  C        156.3000  104.9980   -7.2410 C.2    62  GLY62       0.2662
     68  O        155.9930  106.0500   -6.6830 O.2    62  GLY62      -0.2684
     69  N        157.5470  104.7570   -7.6210 N.am   63  PRO63      -0.2683
     70  CA       158.0220  103.4400   -8.0730 C.3    63  PRO63       0.1538
     71  C        158.0970  102.4250   -6.9090 C.2    63  PRO63       0.2598
     72  O        158.2620  102.8240   -5.7570 O.2    63  PRO63      -0.2715
     73  CB       159.4240  103.7530   -8.5870 C.3    63  PRO63       0.0310
     74  CG       159.8590  104.8980   -7.7010 C.3    63  PRO63       0.0237
     75  CD       158.6290  105.7570   -7.5510 C.3    63  PRO63       0.0942
     76  N        157.9840  101.1340   -7.2270 N.am   64  ILE64      -0.1964
     77  CA       157.9510  100.0570   -6.2270 C.3    64  ILE64       0.1712
     78  C        159.3300   99.5570   -5.8490 C.2    64  ILE64       0.2458
     79  O        159.9770   98.9210   -6.6840 O.2    64  ILE64      -0.2730
     80  CB       157.1310   98.8500   -6.7790 C.3    64  ILE64       0.0289
     81  CG1      155.7090   99.2750   -7.1490 C.3    64  ILE64       0.0022
     82  CG2      157.1080   97.7030   -5.7830 C.3    64  ILE64       0.0023
     83  CD1      155.0110  100.0830   -6.0610 C.3    64  ILE64       0.0001
     84  N        159.7730   99.8120   -4.6100 N.am   65  PRO65      -0.2727
     85  CA       161.0380   99.2640   -4.1080 C.3    65  PRO65       0.1402
     86  C        160.8990   97.8320   -3.6460 C.2    65  PRO65       0.2269
     87  O        159.8130   97.4590   -3.1040 O.2    65  PRO65      -0.2865
     88  CB       161.3930  100.1640   -2.8990 C.3    65  PRO65       0.0296
     89  CG       160.1720  100.9240   -2.5300 C.3    65  PRO65       0.0237
     90  CD       159.1190  100.6550   -3.5880 C.3    65  PRO65       0.0939
     91  N        159.5280   95.6380    1.9030 N.3    68  ILE68      -0.1231
     92  CA       158.2930   95.7960    2.5840 C.3    68  ILE68       0.1692
     93  C        158.1000   97.2730    2.6250 C.2    68  ILE68       0.2592
     94  O        158.9290   97.9790    3.1810 O.2    68  ILE68      -0.2718
     95  CB       158.3650   95.1550    3.9870 C.3    68  ILE68       0.0266
     96  CG1      158.4030   93.6220    3.8510 C.3    68  ILE68       0.0019
     97  CG2      157.1650   95.5890    4.8800 C.3    68  ILE68       0.0020
     98  CD1      158.9200   92.8480    5.1150 C.3    68  ILE68       0.0001
     99  N        157.0190   97.7230    1.9960 N.am   69  ASN69      -0.1960
    100  CA       156.6500   99.1240    1.9230 C.3    69  ASN69       0.1819
    101  C        155.2220   99.3770    2.3410 C.2    69  ASN69       0.2621
    102  O        154.4500   98.4450    2.5440 O.2    69  ASN69      -0.2715
    103  CB       156.8950   99.6220    0.5250 C.3    69  ASN69       0.1195
    104  CG       158.2380   99.1830    0.0020 C.2    69  ASN69       0.2630
    105  OD1      159.2890   99.7560    0.3670 O.2    69  ASN69      -0.2716
    106  ND2      158.2270   98.1530   -0.8500 N.am   69  ASN69      -0.0877
    107  N        154.8890  100.6600    2.4720 N.am   70  LYS70      -0.1963
    108  CA       153.6090  101.0790    3.0290 C.3    70  LYS70       0.1728
    109  C        153.1910  102.4650    2.6060 C.2    70  LYS70       0.2616
    110  O        153.9880  103.3500    2.5260 O.2    70  LYS70      -0.2715
    111  CB       153.6420  100.9940    4.5630 C.3    70  LYS70       0.0311
    112  CG       153.9090  102.3130    5.2630 C.3    70  LYS70       0.0038
    113  CD       153.7220  102.1490    6.7400 C.3    70  LYS70       0.0206
    114  CE       154.7650  102.9320    7.5320 C.3    70  LYS70       0.1093
    115  NZ       154.4670  102.9440    8.9630 N.3    70  LYS70      -0.1314
    116  N        151.8970  102.6340    2.4070 N.am   71  PHE71      -0.1960
    117  CA       151.3170  103.9080    2.0200 C.3    71  PHE71       0.1771
    118  C        149.9190  104.0970    2.5730 C.2    71  PHE71       0.2619
    119  O        149.2920  103.1400    2.9840 O.2    71  PHE71      -0.2715
    120  CB       151.2640  104.0250    0.4980 C.3    71  PHE71       0.0574
    121  CG       150.3860  103.0220   -0.1510 C.ar   71  PHE71      -0.0200
    122  CD1      149.2130  103.4210   -0.7640 C.ar   71  PHE71      -0.0042
    123  CD2      150.7340  101.6740   -0.1650 C.ar   71  PHE71      -0.0042
    124  CE1      148.3870  102.4860   -1.3710 C.ar   71  PHE71      -0.0003
    125  CE2      149.9010  100.7170   -0.7750 C.ar   71  PHE71      -0.0003
    126  CZ       148.7260  101.1330   -1.3770 C.ar   71  PHE71      -0.0000
    127  N        149.4440  105.3310    2.5440 N.am   72  VAL72      -0.1963
    128  CA       148.0920  105.6320    2.9290 C.3    72  VAL72       0.1727
    129  C        147.2760  105.8490    1.6830 C.2    72  VAL72       0.2616
    130  O        147.7130  106.5790    0.7620 O.2    72  VAL72      -0.2715
    131  CB       148.0100  106.8880    3.8180 C.3    72  VAL72       0.0290
    132  CG1      146.5300  107.3590    4.0290 C.3    72  VAL72       0.0023
    133  CG2      148.7060  106.5870    5.1270 C.3    72  VAL72       0.0023
    134  N        146.0930  105.2170    1.6690 N.am   73  PHE73      -0.1960
    135  CA       145.1370  105.2720    0.5610 C.3    73  PHE73       0.1771
    136  C        143.8670  105.8520    1.1560 C.2    73  PHE73       0.2619
    137  O        143.1930  105.2360    1.9750 O.2    73  PHE73      -0.2715
    138  CB       144.8830  103.8680   -0.0150 C.3    73  PHE73       0.0574
    139  CG       143.8560  103.8060   -1.1580 C.ar   73  PHE73      -0.0200
    140  CD1      143.4660  104.9130   -1.8700 C.ar   73  PHE73      -0.0042
    141  CD2      143.3100  102.5790   -1.5240 C.ar   73  PHE73      -0.0042
    142  CE1      142.5320  104.8080   -2.8880 C.ar   73  PHE73      -0.0003
    143  CE2      142.3860  102.4710   -2.5560 C.ar   73  PHE73      -0.0003
    144  CZ       142.0080  103.5990   -3.2410 C.ar   73  PHE73      -0.0000
    145  N        143.5840  107.0610    0.7270 N.am   74  GLU74      -0.1977
    146  CA       142.4060  107.7750    1.0920 C.3    74  GLU74       0.1602
    147  C        141.4160  107.7490   -0.0660 C.2    74  GLU74       0.2287
    148  O        141.7890  108.0610   -1.2110 O.2    74  GLU74      -0.2864
    149  CB       142.7720  109.2240    1.4080 C.3    74  GLU74       0.0415
    150  CG       141.7590  109.9010    2.3400 C.3    74  GLU74       0.1163
    151  CD       142.2400  111.2700    2.8450 C.2    74  GLU74       0.3649
    152  OE1      143.3280  111.3580    3.4850 O.co2  74  GLU74      -0.2457
    153  OE2      141.5060  112.2560    2.5650 O.co2  74  GLU74      -0.2457
@<TRIPOS>BOND
     1    19    20    1
     2    56    55    1
     3    26    24   ar
     4    22    21    2
     5    57    55    1
     6    24    23    1
     7    24    25   ar
     8    23    20    1
     9    20    21    1
    10    55    54    1
    11    54    51    1
    12    40    39    1
    13    41    39    1
    14    39    36    1
    15    73    70    1
    16    73    74    1
    17    51    50    1
    18    51    52    1
    19    70    69    1
    20    70    71    1
    21    50    44   am
    22    74    75    1
    23    69    75    1
    24    69    67   am
    25    61    60    2
    26    66    67    1
    27    66    65    2
    28    36    35    1
    29    36    37    1
    30    52    58   am
    31    52    53    2
    32    58    59    1
    33    67    68    2
    34    76    71   am
    35    76    77    1
    36    81    80    1
    37    81    83    1
    38    45    44    2
    39    44    43    1
    40    35    29   am
    41    37    42   am
    42    37    38    2
    43    42    43    1
    44    71    72    2
    45    60    65    1
    46    60    59    1
    47    80    77    1
    48    80    82    1
    49    79    78    2
    50    43    46    1
    51    29    30    2
    52    29    28    1
    53    59    62    1
    54    77    78    1
    55    28    27    1
    56    28    31    1
    57    78    84   am
    58    33    32   ar
    59    62    64    1
    60    62    63    1
    61    46    47    1
    62    32    31    1
    63    32    34   ar
    64    84    85    1
    65    84    90    1
    66    48    47    1
    67    47    49    1
    68    85    86    1
    69    85    88    1
    70    86    87    2
    71    90    89    1
    72   144   142   ar
    73   144   143   ar
    74    88    89    1
    75   142   140   ar
    76   143   141   ar
    77    16    18   ar
    78    16    14   ar
    79    18    17   ar
    80   140   139   ar
    81    14    13   ar
    82   141   139   ar
    83   126   124   ar
    84   126   125   ar
    85   124   122   ar
    86   148   147    2
    87   139   138    1
    88    17    15   ar
    89   106   104   am
    90   125   123   ar
    91   122   121   ar
    92    13    15   ar
    93    13    12    1
    94   123   121   ar
    95   121   120    1
    96   147   146    1
    97    12     9    1
    98   138   135    1
    99   104   105    2
   100   104   103    1
   101   120   117    1
   102   103   100    1
   103   135   136    1
   104   135   134    1
   105   145   146    1
   106   145   136   am
   107   130   129    2
   108    10    11    2
   109    10     9    1
   110   146   149    1
   111   136   137    2
   112     9     8    1
   113   149   150    1
   114   134   129   am
   115   129   128    1
   116    91    92    1
   117   100    99    1
   118   100   101    1
   119    99    93   am
   120   117   116    1
   121   117   118    1
   122     8     3   am
   123   150   151    1
   124   101   107   am
   125   101   102    2
   126   116   109   am
   127   107   108    1
   128   110   109    2
   129   127   118   am
   130   127   128    1
   131   153   151   ar
   132   118   119    2
   133    92    93    1
   134    92    95    1
   135   109   108    1
   136    93    94    2
   137   151   152   ar
   138   128   131    1
   139   108   111    1
   140     3     4    2
   141     3     2    1
   142   131   132    1
   143   131   133    1
   144     1     2    1
   145    96    95    1
   146    96    98    1
   147     2     5    1
   148    95    97    1
   149   111   112    1
   150   112   113    1
   151     5     7    1
   152     5     6    1
   153   113   114    1
   154   114   115    1
