@<TRIPOS>MOLECULE
tmp/2z3fC01.pdb
 102 97 0 0 0
SMALL
GASTEIGER

@<TRIPOS>ATOM
      1  N         93.3500   76.0690  -33.0740 N.3     5  ILE5       -0.1231
      2  CA        94.2590   76.8210  -32.2540 C.3     5  ILE5        0.1692
      3  C         93.8700   76.4880  -30.8420 C.2     5  ILE5        0.2592
      4  O         92.6940   76.5920  -30.5400 O.2     5  ILE5       -0.2718
      5  CB        94.1150   78.3160  -32.5210 C.3     5  ILE5        0.0266
      6  CG1       94.5640   78.6090  -33.9380 C.3     5  ILE5        0.0019
      7  CG2       94.9530   79.1000  -31.5750 C.3     5  ILE5        0.0020
      8  CD1       94.1780   80.0030  -34.3860 C.3     5  ILE5        0.0001
      9  N         94.8380   76.0940  -29.9990 N.am    6  LEU6       -0.1966
     10  CA        94.5390   75.8140  -28.5850 C.3     6  LEU6        0.1728
     11  C         94.8600   76.9670  -27.6850 C.2     6  LEU6        0.2617
     12  O         94.0980   77.2960  -26.8110 O.2     6  LEU6       -0.2715
     13  CB        95.2870   74.6090  -28.0550 C.3     6  LEU6        0.0311
     14  CG        95.1110   73.2780  -28.7770 C.3     6  LEU6        0.0022
     15  CD1       95.8090   72.2090  -27.9690 C.3     6  LEU6        0.0001
     16  CD2       93.6620   72.9130  -29.1300 C.3     6  LEU6        0.0001
     17  N         95.9790   77.6140  -27.8970 N.am    7  SER7       -0.1936
     18  CA        96.2430   78.7990  -27.0900 C.3     7  SER7        0.2055
     19  C         97.1090   79.8160  -27.8550 C.2     7  SER7        0.2643
     20  O         97.9190   79.3930  -28.7450 O.2     7  SER7       -0.2714
     21  CB        96.8540   78.4080  -25.7370 C.3     7  SER7        0.2130
     22  OG        98.0650   77.6610  -25.8530 O.3     7  SER7       -0.2179
     23  N         96.8770   81.1290  -27.5870 N.am    8  VAL8       -0.1963
     24  CA        97.8120   82.1500  -28.0040 C.3     8  VAL8        0.1727
     25  C         98.1820   82.9850  -26.8200 C.2     8  VAL8        0.2616
     26  O         97.3710   83.4470  -26.0480 O.2     8  VAL8       -0.2715
     27  CB        97.4340   82.9600  -29.2960 C.3     8  VAL8        0.0290
     28  CG1       96.1810   82.4950  -29.9250 C.3     8  VAL8        0.0023
     29  CG2       97.4380   84.4390  -29.0830 C.3     8  VAL8        0.0023
     30  N         99.4600   83.1550  -26.6610 N.am    9  ASN9       -0.1958
     31  CA        99.9590   83.7600  -25.4830 C.3     9  ASN9        0.1819
     32  C        100.8860   84.9260  -25.9290 C.2     9  ASN9        0.2621
     33  O        101.8040   84.7540  -26.7200 O.2     9  ASN9       -0.2715
     34  CB       100.6240   82.6670  -24.6110 C.3     9  ASN9        0.1195
     35  CG       101.4770   83.2490  -23.4730 C.2     9  ASN9        0.2630
     36  OD1      101.0330   84.1610  -22.7030 O.2     9  ASN9       -0.2716
     37  ND2      102.7300   82.7490  -23.3620 N.am    9  ASN9       -0.0877
     38  N        100.6130   86.1360  -25.4630 N.am   10  VAL10      -0.1977
     39  CA       101.4340   87.2610  -25.8570 C.3    10  VAL10       0.1596
     40  C        102.6190   87.2800  -24.8850 C.2    10  VAL10       0.2287
     41  O        102.4860   87.5060  -23.7020 O.2    10  VAL10      -0.2864
     42  CB       100.6330   88.5850  -25.8100 C.3    10  VAL10       0.0276
     43  CG1      101.4470   89.7100  -26.3290 C.3    10  VAL10       0.0022
     44  CG2       99.3090   88.4890  -26.6120 C.3    10  VAL10       0.0022
     45  N         91.6670   85.3770  -35.5030 N.3   109  VAL109     -0.1245
     46  CA        91.4960   85.7950  -34.1120 C.3   109  VAL109      0.1561
     47  C         91.7620   87.2810  -33.9690 C.2   109  VAL109      0.2260
     48  O         92.8680   87.7310  -34.1980 O.2   109  VAL109     -0.2867
     49  CB        92.5230   85.0670  -33.2050 C.3   109  VAL109      0.0252
     50  CG1       92.2250   85.3360  -31.7540 C.3   109  VAL109      0.0019
     51  CG2       92.4680   83.6390  -33.4620 C.3   109  VAL109      0.0019
     52  N         91.9620   90.8340  -31.6750 N.3   111  TYR111     -0.1241
     53  CA        92.1990   91.2410  -30.3250 C.3   111  TYR111      0.1605
     54  C         92.0400   92.7080  -30.2100 C.2   111  TYR111      0.2264
     55  O         92.5640   93.4060  -31.0350 O.2   111  TYR111     -0.2867
     56  CB        93.6270   90.9650  -30.0060 C.3   111  TYR111      0.0534
     57  CG        93.9140   89.5230  -29.8580 C.ar  111  TYR111     -0.0201
     58  CD1       93.6050   88.8910  -28.6850 C.ar  111  TYR111     -0.0009
     59  CD2       94.5060   88.7830  -30.8960 C.ar  111  TYR111     -0.0009
     60  CE1       93.8490   87.5670  -28.5110 C.ar  111  TYR111      0.0417
     61  CE2       94.7860   87.4220  -30.7240 C.ar  111  TYR111      0.0417
     62  CZ        94.4470   86.8330  -29.5020 C.ar  111  TYR111      0.1957
     63  OH        94.6700   85.5250  -29.2550 O.3   111  TYR111     -0.2866
     64  N         94.6180   89.6960  -24.6090 N.3   146  ALA146     -0.1231
     65  CA        94.8000   88.3610  -25.1300 C.3   146  ALA146      0.1694
     66  C         93.7990   87.4060  -24.5460 C.2   146  ALA146      0.2591
     67  O         93.6520   86.3070  -25.0580 O.2   146  ALA146     -0.2718
     68  CB        96.1520   87.8950  -24.8370 C.3   146  ALA146      0.0304
     69  N         93.0940   87.8290  -23.4950 N.am  147  GLU147     -0.1979
     70  CA        92.1690   86.9450  -22.8080 C.3   147  GLU147      0.1602
     71  C         90.8150   86.9880  -23.4190 C.2   147  GLU147      0.2287
     72  O         89.9730   86.1870  -23.0580 O.2   147  GLU147     -0.2864
     73  CB        92.0400   87.3150  -21.3530 C.3   147  GLU147      0.0415
     74  CG        93.3090   86.9990  -20.5690 C.3   147  GLU147      0.1163
     75  CD        94.4260   88.0130  -20.8170 C.2   147  GLU147      0.3649
     76  OE1       95.5690   87.5630  -20.6390 O.co2 147  GLU147     -0.2457
     77  OE2       94.2020   89.2310  -21.1840 O.co2 147  GLU147     -0.2457
     78  N         89.8370   87.0140  -27.0660 N.3   149  PRO149     -0.2116
     79  CA        89.9300   86.9220  -28.5310 C.3   149  PRO149      0.1372
     80  C         88.6150   86.7210  -29.1910 C.2   149  PRO149      0.2244
     81  O         87.8450   85.9960  -28.6240 O.2   149  PRO149     -0.2868
     82  CB        90.7180   85.6260  -28.7390 C.3   149  PRO149      0.0268
     83  CG        90.4560   84.8040  -27.5350 C.3   149  PRO149      0.0207
     84  CD        90.3850   85.8200  -26.3920 C.3   149  PRO149      0.0892
     85  N         87.1770   84.8350  -32.2150 N.3   151  VAL151     -0.1245
     86  CA        87.6200   83.8610  -33.2120 C.3   151  VAL151      0.1561
     87  C         86.6460   83.8390  -34.3540 C.2   151  VAL151      0.2260
     88  O         85.4800   83.9160  -34.1340 O.2   151  VAL151     -0.2867
     89  CB        87.7350   82.4280  -32.5850 C.3   151  VAL151      0.0252
     90  CG1       88.4230   81.5100  -33.5110 C.3   151  VAL151      0.0019
     91  CG2       88.5290   82.4780  -31.2940 C.3   151  VAL151      0.0019
     92  N         85.8980   81.3920  -37.9340 N.3   153  ARG153     -0.1245
     93  CA        86.3720   80.1840  -38.5840 C.3   153  ARG153      0.1563
     94  C         85.8170   80.1100  -39.9690 C.2   153  ARG153      0.2260
     95  O         84.7380   80.5170  -40.2030 O.2   153  ARG153     -0.2867
     96  CB        85.9740   78.9580  -37.7840 C.3   153  ARG153      0.0307
     97  CG        87.0460   78.5220  -36.8160 C.3   153  ARG153      0.0489
     98  CD        86.5540   77.6300  -35.6610 C.3   153  ARG153      0.2205
     99  NE        86.8900   78.1930  -34.3400 N.pl3 153  ARG153     -0.0865
    100  CZ        87.0730   77.4830  -33.2090 C.cat 153  ARG153      0.5346
    101  NH1       86.9650   76.1390  -33.2170 N.pl3 153  ARG153      0.1354
    102  NH2       87.3830   78.1140  -32.0640 N.pl3 153  ARG153      0.1354
@<TRIPOS>BOND
     1    95    94    2
     2    94    93    1
     3    93    92    1
     4    93    96    1
     5    96    97    1
     6    97    98    1
     7    98    99    1
     8    45    46    1
     9     8     6    1
    10    87    88    2
    11    87    86    1
    12    99   100    2
    13    48    47    2
    14    46    47    1
    15    46    49    1
    16     6     5    1
    17    90    89    1
    18    51    49    1
    19   101   100    1
    20    86    89    1
    21    86    85    1
    22   100   102    1
    23    49    50    1
    24     1     2    1
    25    89    91    1
    26     5     2    1
    27     5     7    1
    28     2     3    1
    29    52    53    1
    30    55    54    2
    31    59    61   ar
    32    59    57   ar
    33     3     4    2
    34     3     9   am
    35    61    62   ar
    36    53    54    1
    37    53    56    1
    38    56    57    1
    39     9    10    1
    40    28    27    1
    41    57    58   ar
    42    62    63    1
    43    62    60   ar
    44    27    29    1
    45    27    24    1
    46    80    81    2
    47    80    79    1
    48    16    14    1
    49    14    13    1
    50    14    15    1
    51    20    19    2
    52    82    79    1
    53    82    83    1
    54    58    60   ar
    55    10    13    1
    56    10    11    1
    57    79    78    1
    58    24    23    1
    59    24    25    1
    60    17    11   am
    61    17    18    1
    62    19    23   am
    63    19    18    1
    64    11    12    2
    65    83    84    1
    66    18    21    1
    67    78    84    1
    68    25    30   am
    69    25    26    2
    70    33    32    2
    71    30    31    1
    72    44    42    1
    73    43    42    1
    74    32    31    1
    75    32    38   am
    76    39    42    1
    77    39    38    1
    78    39    40    1
    79    22    21    1
    80    31    34    1
    81    65    68    1
    82    65    64    1
    83    65    66    1
    84    67    66    2
    85    40    41    2
    86    34    35    1
    87    66    69   am
    88    69    70    1
    89    35    37   am
    90    35    36    2
    91    71    72    2
    92    71    70    1
    93    70    73    1
    94    73    74    1
    95    77    75   ar
    96    75    76   ar
    97    75    74    1
