@<TRIPOS>MOLECULE
tmp/2z3fG00.pdb
 126 126 0 0 0
SMALL
GASTEIGER

@<TRIPOS>ATOM
      1  N         81.4990   97.5270   -9.7440 N.3    26  THR26      -0.1203
      2  CA        80.0480   97.4510   -9.7860 C.3    26  THR26       0.1994
      3  C         79.6620   96.3130   -8.8790 C.2    26  THR26       0.2617
      4  O         80.2270   95.2490   -8.9840 O.2    26  THR26      -0.2717
      5  CB        79.6040   97.2140  -11.2300 C.3    26  THR26       0.1784
      6  OG1       80.0490   98.3140  -12.0310 O.3    26  THR26      -0.2211
      7  CG2       78.1310   97.2620  -11.3770 C.3    26  THR26       0.0376
      8  N         78.7460   96.5530   -7.9460 N.am   27  PHE27      -0.1975
      9  CA        78.3370   95.5120   -6.9820 C.3    27  PHE27       0.1639
     10  C         76.8110   95.4880   -6.7100 C.2    27  PHE27       0.2290
     11  O         76.0880   96.4660   -6.9340 O.2    27  PHE27      -0.2864
     12  CB        79.0880   95.6980   -5.6660 C.3    27  PHE27       0.0560
     13  CG        78.7140   96.9610   -4.9570 C.ar   27  PHE27      -0.0200
     14  CD1       77.7680   96.9470   -3.9500 C.ar   27  PHE27      -0.0042
     15  CD2       79.2660   98.1840   -5.3430 C.ar   27  PHE27      -0.0042
     16  CE1       77.4120   98.1190   -3.3300 C.ar   27  PHE27      -0.0003
     17  CE2       78.9150   99.3470   -4.7150 C.ar   27  PHE27      -0.0003
     18  CZ        77.9920   99.3190   -3.7180 C.ar   27  PHE27      -0.0000
     19  N         78.9910  101.4980    6.2280 N.3    36  ASP36      -0.1239
     20  CA        79.6340  101.5710    4.9190 C.3    36  ASP36       0.1674
     21  C         80.4350  100.3030    4.5340 C.2    36  ASP36       0.2266
     22  O         80.8030   99.4770    5.3950 O.2    36  ASP36      -0.2867
     23  CB        80.5980  102.7520    4.9070 C.3    36  ASP36       0.1410
     24  CG        79.9270  104.0580    5.1950 C.2    36  ASP36       0.3668
     25  OD1       78.6800  104.1160    5.0640 O.co2  36  ASP36      -0.2456
     26  OD2       80.5750  105.0860    5.5460 O.co2  36  ASP36      -0.2456
     27  N         89.1200  103.0380    1.0310 N.3    59  LEU59      -0.1231
     28  CA        88.0330  103.8850    0.5950 C.3    59  LEU59       0.1693
     29  C         86.7450  103.3730    1.2220 C.2    59  LEU59       0.2592
     30  O         86.4490  102.1780    1.1670 O.2    59  LEU59      -0.2718
     31  CB        87.9340  103.8850   -0.9280 C.3    59  LEU59       0.0284
     32  CG        86.7780  104.6300   -1.5830 C.3    59  LEU59       0.0019
     33  CD1       86.7860  106.0970   -1.2910 C.3    59  LEU59       0.0001
     34  CD2       86.8750  104.4650   -3.0960 C.3    59  LEU59       0.0001
     35  N         86.0080  104.2920    1.8580 N.am   60  LEU60      -0.1966
     36  CA        84.6870  104.0050    2.4170 C.3    60  LEU60       0.1728
     37  C         83.6270  104.3580    1.3660 C.2    60  LEU60       0.2616
     38  O         83.6330  105.4630    0.7920 O.2    60  LEU60      -0.2715
     39  CB        84.4520  104.8410    3.6730 C.3    60  LEU60       0.0311
     40  CG        85.3860  104.5580    4.8290 C.3    60  LEU60       0.0022
     41  CD1       85.1980  105.6420    5.8910 C.3    60  LEU60       0.0001
     42  CD2       85.1660  103.1630    5.4060 C.3    60  LEU60       0.0001
     43  N         82.7530  103.4070    1.0950 N.am   61  VAL61      -0.1963
     44  CA        81.6610  103.6170    0.1790 C.3    61  VAL61       0.1730
     45  C         80.3860  103.4410    0.9930 C.2    61  VAL61       0.2656
     46  O         80.2050  102.3860    1.6240 O.2    61  VAL61      -0.2711
     47  CB        81.7190  102.5610   -0.9880 C.3    61  VAL61       0.0290
     48  CG1       80.5630  102.7170   -1.9510 C.3    61  VAL61       0.0023
     49  CG2       83.0390  102.6250   -1.7530 C.3    61  VAL61       0.0023
     50  N         79.5090  104.4470    0.9300 N.am   62  GLY62      -0.1717
     51  CA        78.2190  104.4640    1.6270 C.2    62  GLY62       0.1465
     52  C         77.4500  105.8010    1.6020 C.2    62  GLY62       0.2662
     53  O         77.9660  106.7940    1.0630 O.2    62  GLY62      -0.2684
     54  N         76.1950  105.8410    2.0950 N.am   63  PRO63      -0.2683
     55  CA        75.4200  104.6510    2.5070 C.3    63  PRO63       0.1538
     56  C         75.0610  103.8310    1.2810 C.2    63  PRO63       0.2598
     57  O         74.7690  104.4070    0.2360 O.2    63  PRO63      -0.2715
     58  CB        74.1300  105.2330    3.1010 C.3    63  PRO63       0.0310
     59  CG        73.9390  106.5480    2.3700 C.3    63  PRO63       0.0237
     60  CD        75.3840  107.0810    2.1700 C.3    63  PRO63       0.0942
     61  N         75.0810  102.5150    1.4460 N.am   64  ILE64      -0.1964
     62  CA        74.8100  101.5430    0.4110 C.3    64  ILE64       0.1712
     63  C         73.3410  101.5050    0.0490 C.2    64  ILE64       0.2458
     64  O         72.5560  100.9800    0.8350 O.2    64  ILE64      -0.2730
     65  CB        75.1490  100.1130    0.9500 C.3    64  ILE64       0.0289
     66  CG1       76.5860  100.0210    1.5020 C.3    64  ILE64       0.0022
     67  CG2       74.9360   99.0730   -0.1370 C.3    64  ILE64       0.0023
     68  CD1       77.6810  100.4350    0.5010 C.3    64  ILE64       0.0001
     69  N         72.9520  102.0050   -1.1270 N.am   65  PRO65      -0.2716
     70  CA        71.6060  101.7470   -1.6360 C.3    65  PRO65       0.1536
     71  C         71.4570  100.2680   -1.9110 C.2    65  PRO65       0.2598
     72  O         72.4410   99.5280   -1.9180 O.2    65  PRO65      -0.2715
     73  CB        71.5520  102.5330   -2.9620 C.3    65  PRO65       0.0310
     74  CG        72.6350  103.5560   -2.8780 C.3    65  PRO65       0.0237
     75  CD        73.7180  102.8400   -2.0720 C.3    65  PRO65       0.0939
     76  N         70.2260   99.8500   -2.1570 N.am   66  ILE66      -0.1978
     77  CA        69.9330   98.4540   -2.4300 C.3    66  ILE66       0.1596
     78  C         69.8680   98.3480   -3.9290 C.2    66  ILE66       0.2287
     79  O         69.5800   99.3560   -4.6290 O.2    66  ILE66      -0.2864
     80  CB        68.6290   98.0200   -1.7120 C.3    66  ILE66       0.0276
     81  CG1       68.9830   97.5570   -0.2920 C.3    66  ILE66       0.0022
     82  CG2       67.8800   96.8940   -2.4510 C.3    66  ILE66       0.0022
     83  CD1       67.8080   97.5310    0.6270 C.3    66  ILE66       0.0001
     84  N         71.8630   97.7400   -7.4700 N.3    68  ILE68      -0.1231
     85  CA        73.0420   97.6330   -8.3460 C.3    68  ILE68       0.1692
     86  C         73.7220   98.9730   -8.4150 C.2    68  ILE68       0.2592
     87  O         73.1460   99.9690   -8.8840 O.2    68  ILE68      -0.2718
     88  CB        72.6750   97.1380   -9.7850 C.3    68  ILE68       0.0266
     89  CG1       71.9630   95.7840   -9.7460 C.3    68  ILE68       0.0019
     90  CG2       73.9160   96.9910  -10.6540 C.3    68  ILE68       0.0020
     91  CD1       72.6990   94.6790   -8.9650 C.3    68  ILE68       0.0001
     92  N         74.9680   98.9820   -7.9430 N.am   69  ASN69      -0.1960
     93  CA        75.7230  100.2280   -7.7420 C.3    69  ASN69       0.1819
     94  C         77.1540  100.1600   -8.2860 C.2    69  ASN69       0.2621
     95  O         77.7570   99.0960   -8.3600 O.2    69  ASN69      -0.2715
     96  CB        75.7350  100.5750   -6.2350 C.3    69  ASN69       0.1195
     97  CG        74.2970  100.7350   -5.6290 C.2    69  ASN69       0.2630
     98  OD1       73.4710  101.5960   -6.0780 O.2    69  ASN69      -0.2716
     99  ND2       74.0080   99.9200   -4.6030 N.am   69  ASN69      -0.0877
    100  N         77.6760  101.3100   -8.6720 N.am   70  LYS70      -0.1963
    101  CA        79.0730  101.4590   -9.0510 C.3    70  LYS70       0.1728
    102  C         79.7950  102.6790   -8.4260 C.2    70  LYS70       0.2616
    103  O         79.1890  103.6960   -8.0880 O.2    70  LYS70      -0.2715
    104  CB        79.1690  101.5280  -10.5750 C.3    70  LYS70       0.0311
    105  CG        78.8330  102.9000  -11.1860 C.3    70  LYS70       0.0038
    106  CD        78.8520  102.7960  -12.7220 C.3    70  LYS70       0.0206
    107  CE        78.2410  104.0410  -13.4250 C.3    70  LYS70       0.1093
    108  NZ        78.6850  104.1350  -14.8540 N.3    70  LYS70      -0.1314
    109  N         81.1130  102.5880   -8.3130 N.am   71  PHE71      -0.1960
    110  CA        81.9220  103.7570   -7.9420 C.3    71  PHE71       0.1771
    111  C         83.3100  103.6420   -8.5210 C.2    71  PHE71       0.2619
    112  O         83.6350  102.6430   -9.1010 O.2    71  PHE71      -0.2715
    113  CB        82.0090  103.8450   -6.4280 C.3    71  PHE71       0.0574
    114  CG        82.6900  102.6720   -5.7940 C.ar   71  PHE71      -0.0200
    115  CD1       83.9640  102.7730   -5.2930 C.ar   71  PHE71      -0.0042
    116  CD2       82.0590  101.4620   -5.6850 C.ar   71  PHE71      -0.0042
    117  CE1       84.5780  101.6790   -4.6930 C.ar   71  PHE71      -0.0003
    118  CE2       82.6820  100.3640   -5.0470 C.ar   71  PHE71      -0.0003
    119  CZ        83.9130  100.4790   -4.5630 C.ar   71  PHE71      -0.0000
    120  N         84.1340  104.6540   -8.3460 N.am   72  VAL72      -0.1977
    121  CA        85.4940  104.5670   -8.8040 C.3    72  VAL72       0.1596
    122  C         86.4700  104.4950   -7.6280 C.2    72  VAL72       0.2287
    123  O         86.5170  105.4110   -6.7950 O.2    72  VAL72      -0.2864
    124  CB        85.8840  105.7610   -9.6740 C.3    72  VAL72       0.0276
    125  CG1       87.4050  105.8140   -9.8650 C.3    72  VAL72       0.0022
    126  CG2       85.1810  105.6930  -10.9870 C.3    72  VAL72       0.0022
@<TRIPOS>BOND
     1   108   107    1
     2   107   106    1
     3   106   105    1
     4     6     5    1
     5     7     5    1
     6     5     2    1
     7   105   104    1
     8   126   124    1
     9    90    88    1
    10   104   101    1
    11   125   124    1
    12     2     1    1
    13     2     3    1
    14    88    89    1
    15    88    85    1
    16    89    91    1
    17   124   121    1
    18   112   111    2
    19   101   100    1
    20   101   102    1
    21     4     3    2
    22    87    86    2
    23     3     8   am
    24   121   120    1
    25   121   122    1
    26   100    94   am
    27   111   120   am
    28   111   110    1
    29   102   109   am
    30   102   103    2
    31    86    85    1
    32    86    92   am
    33    95    94    2
    34    85    84    1
    35   109   110    1
    36    94    93    1
    37     8     9    1
    38    92    93    1
    39   110   113    1
    40    93    96    1
    41   122   123    2
    42     9    10    1
    43     9    12    1
    44    11    10    2
    45   113   114    1
    46    96    97    1
    47    98    97    2
    48   114   116   ar
    49   114   115   ar
    50   116   118   ar
    51    12    13    1
    52    97    99   am
    53    15    13   ar
    54    15    17   ar
    55   115   117   ar
    56   118   119   ar
    57    13    14   ar
    58    17    18   ar
    59   117   119   ar
    60    79    78    2
    61    14    16   ar
    62    78    77    1
    63    18    16   ar
    64    34    32    1
    65    73    74    1
    66    73    70    1
    67    74    75    1
    68    82    80    1
    69    77    76    1
    70    77    80    1
    71    76    71   am
    72    75    69    1
    73    48    47    1
    74    72    71    2
    75    71    70    1
    76    49    47    1
    77    80    81    1
    78    70    69    1
    79    32    33    1
    80    32    31    1
    81    69    63   am
    82    47    44    1
    83    31    28    1
    84    81    83    1
    85    67    65    1
    86    63    62    1
    87    63    64    2
    88    44    45    1
    89    44    43    1
    90    57    56    2
    91    62    65    1
    92    62    61    1
    93    68    66    1
    94    28    27    1
    95    28    29    1
    96    38    37    2
    97    50    45    1
    98    50    51    2
    99    65    66    1
   100    45    46    2
   101    53    52    2
   102    43    37   am
   103    30    29    2
   104    29    35   am
   105    56    61   am
   106    56    55    1
   107    37    36    1
   108    52    51    1
   109    52    54   am
   110    35    36    1
   111    54    60    1
   112    54    55    1
   113    60    59    1
   114    59    58    1
   115    36    39    1
   116    55    58    1
   117    39    40    1
   118    21    20    1
   119    21    22    2
   120    40    42    1
   121    40    41    1
   122    23    20    1
   123    23    24    1
   124    20    19    1
   125    25    24   ar
   126    24    26   ar
