@<TRIPOS>MOLECULE
tmp/2z3iA00.pdb
 113 107 0 0 0
SMALL
GASTEIGER

@<TRIPOS>ATOM
      1  N         19.4810   39.6530  109.1260 N.3    24  GLU24      -0.1231
      2  CA        19.6810   38.4200  108.3450 C.3    24  GLU24       0.1699
      3  C         20.1320   38.7230  106.9130 C.2    24  GLU24       0.2592
      4  O         20.5990   37.8210  106.2110 O.2    24  GLU24      -0.2718
      5  CB        18.3940   37.5970  108.2950 C.3    24  GLU24       0.0402
      6  CG        18.1500   36.7730  109.5390 C.3    24  GLU24       0.1161
      7  CD        16.8960   35.9430  109.4020 C.2    24  GLU24       0.3649
      8  OE1       15.8020   36.5200  109.5780 O.co2  24  GLU24      -0.2457
      9  OE2       16.9960   34.7280  109.0990 O.co2  24  GLU24      -0.2457
     10  N         19.9850   39.9800  106.4950 N.am   25  ASP25      -0.1974
     11  CA        20.4610   40.4170  105.1780 C.3    25  ASP25       0.1709
     12  C         21.9370   40.7960  105.1970 C.2    25  ASP25       0.2293
     13  O         22.6590   40.5610  104.2210 O.2    25  ASP25      -0.2864
     14  CB        19.6500   41.6380  104.7020 C.3    25  ASP25       0.1436
     15  CG        18.1760   41.3100  104.4690 C.2    25  ASP25       0.3671
     16  OD1       17.3000   42.1690  104.7540 O.co2  25  ASP25      -0.2456
     17  OD2       17.8870   40.1860  104.0090 O.co2  25  ASP25      -0.2456
     18  N         24.9210   40.1860  107.6570 N.3    27  SER27      -0.1202
     19  CA        25.2380   39.3370  108.8240 C.3    27  SER27       0.2020
     20  C         26.7130   38.9570  108.9680 C.2    27  SER27       0.2618
     21  O         27.0960   38.2460  109.9120 O.2    27  SER27      -0.2717
     22  CB        24.4000   38.0570  108.7650 C.3    27  SER27       0.2103
     23  OG        24.7400   37.2950  107.6040 O.3    27  SER27      -0.2182
     24  N         27.5340   39.4170  108.0240 N.am   28  VAL28      -0.1979
     25  CA        28.9600   39.0900  107.9960 C.3    28  VAL28       0.1595
     26  C         29.7080   40.3190  107.5140 C.2    28  VAL28       0.2287
     27  O         29.2830   40.9580  106.5620 O.2    28  VAL28      -0.2864
     28  CB        29.2930   37.9070  107.0190 C.3    28  VAL28       0.0276
     29  CG1       30.8090   37.6040  106.9650 C.3    28  VAL28       0.0022
     30  CG2       28.5110   36.6370  107.3710 C.3    28  VAL28       0.0022
     31  N         28.1400   41.7070  103.9020 N.3    44  ASN44      -0.1240
     32  CA        27.4960   40.9660  102.8050 C.3    44  ASN44       0.1653
     33  C         26.1450   41.5670  102.4880 C.2    44  ASN44       0.2266
     34  O         25.6300   42.4030  103.2400 O.2    44  ASN44      -0.2867
     35  CB        27.3420   39.4730  103.1540 C.3    44  ASN44       0.1155
     36  CG        26.2440   39.2240  104.1650 C.2    44  ASN44       0.2627
     37  OD1       26.2800   39.7370  105.2700 O.2    44  ASN44      -0.2716
     38  ND2       25.2390   38.4570  103.7670 N.am   44  ASN44      -0.0877
     39  N         22.7040   39.7210  101.4240 N.3    46  TYR46      -0.1241
     40  CA        22.0610   38.4260  101.1420 C.3    46  TYR46       0.1605
     41  C         21.0250   38.5530  100.0340 C.2    46  TYR46       0.2264
     42  O         20.1620   39.4480  100.0540 O.2    46  TYR46      -0.2867
     43  CB        21.4090   37.8190  102.3840 C.3    46  TYR46       0.0534
     44  CG        20.9820   36.4070  102.1230 C.ar   46  TYR46      -0.0201
     45  CD1       19.7480   36.1340  101.5100 C.ar   46  TYR46      -0.0009
     46  CD2       21.8250   35.3440  102.4280 C.ar   46  TYR46      -0.0009
     47  CE1       19.3610   34.8370  101.2250 C.ar   46  TYR46       0.0417
     48  CE2       21.4420   34.0320  102.1530 C.ar   46  TYR46       0.0417
     49  CZ        20.2000   33.7980  101.5520 C.ar   46  TYR46       0.1957
     50  OH        19.8180   32.5070  101.2810 O.3    46  TYR46      -0.2866
     51  N         28.8300   38.0180   98.9730 N.3    53  CYS53      -0.1221
     52  CA        29.3950   37.8120  100.3070 C.3    53  CYS53       0.1808
     53  C         30.1510   39.0770  100.7060 C.2    53  CYS53       0.2601
     54  O         30.4680   39.9080   99.8660 O.2    53  CYS53      -0.2717
     55  CB        30.3610   36.6180  100.3230 C.3    53  CYS53       0.0970
     56  SG        29.4810   35.0410  100.2040 S.3    53  CYS53      -0.0800
     57  N         30.4560   39.2000  101.9930 N.am   54  ALA54      -0.1965
     58  CA        31.1880   40.3520  102.4920 C.3    54  ALA54       0.1728
     59  C         32.5180   40.5380  101.7550 C.2    54  ALA54       0.2616
     60  O         32.8820   41.6760  101.4490 O.2    54  ALA54      -0.2715
     61  CB        31.4150   40.2170  103.9680 C.3    54  ALA54       0.0334
     62  N         33.2060   39.4360  101.4460 N.am   55  GLN55      -0.1977
     63  CA        34.5080   39.5330  100.7600 C.3    55  GLN55       0.1601
     64  C         34.3660   40.1790   99.3710 C.2    55  GLN55       0.2287
     65  O         35.2620   40.9360   98.9480 O.2    55  GLN55      -0.2864
     66  CB        35.2100   38.1770  100.6150 C.3    55  GLN55       0.0394
     67  CG        35.6160   37.4660  101.9360 C.3    55  GLN55       0.0908
     68  CD        34.4790   36.6090  102.5240 C.2    55  GLN55       0.2608
     69  OE1       33.2730   36.9550  102.4500 O.2    55  GLN55      -0.2717
     70  NE2       34.8630   35.4850  103.1170 N.am   55  GLN55      -0.0878
     71  N         36.7410   37.0830  106.9960 N.3    75  ALA75      -0.1245
     72  CA        35.3260   37.3530  107.1860 C.3    75  ALA75       0.1562
     73  C         34.9810   37.0090  108.6220 C.2    75  ALA75       0.2260
     74  O         35.4820   36.0140  109.1630 O.2    75  ALA75      -0.2867
     75  CB        34.4660   36.5100  106.2110 C.3    75  ALA75       0.0290
     76  N         30.1280   34.9390  116.1830 N.3    81  ARG81      -0.1245
     77  CA        30.4770   33.7100  115.4830 C.3    81  ARG81       0.1563
     78  C         31.9690   33.6020  115.1460 C.2    81  ARG81       0.2260
     79  O         32.4900   32.5030  114.9590 O.2    81  ARG81      -0.2867
     80  CB        29.6070   33.5450  114.2230 C.3    81  ARG81       0.0307
     81  CG        28.1900   33.0800  114.5730 C.3    81  ARG81       0.0489
     82  CD        27.3570   32.8420  113.2890 C.3    81  ARG81       0.2205
     83  NE        27.1200   34.0820  112.5530 N.pl3  81  ARG81      -0.0865
     84  CZ        26.8930   34.1430  111.2410 C.cat  81  ARG81       0.5346
     85  NH1       26.6860   35.3060  110.6430 N.pl3  81  ARG81       0.1354
     86  NH2       26.9250   33.0420  110.5240 N.pl3  81  ARG81       0.1354
     87  N         34.8020   33.1860  109.6940 N.3    84  LEU84      -0.1231
     88  CA        34.1260   32.2590  108.7630 C.3    84  LEU84       0.1693
     89  C         35.0260   32.0940  107.5500 C.2    84  LEU84       0.2593
     90  O         35.5310   33.0910  107.0060 O.2    84  LEU84      -0.2718
     91  CB        32.7640   32.8160  108.3150 C.3    84  LEU84       0.0284
     92  CG        31.7710   33.1600  109.4240 C.3    84  LEU84       0.0019
     93  CD1       30.5060   33.7770  108.8200 C.3    84  LEU84       0.0001
     94  CD2       31.4560   31.9210  110.2470 C.3    84  LEU84       0.0001
     95  N         35.2310   30.8490  107.1170 N.am   85  SER85      -0.1939
     96  CA        36.0240   30.6100  105.9150 C.3    85  SER85       0.2040
     97  C         35.2950   31.1800  104.7030 C.2    85  SER85       0.2485
     98  O         34.0650   31.1560  104.6750 O.2    85  SER85      -0.2729
     99  CB        36.2320   29.1120  105.7040 C.3    85  SER85       0.2129
    100  OG        36.9900   28.5690  106.7790 O.3    85  SER85      -0.2179
    101  N         36.0460   31.6540  103.6830 N.am   86  PRO86      -0.2715
    102  CA        35.3810   32.1350  102.4680 C.3    86  PRO86       0.1536
    103  C         34.5680   31.0140  101.8450 C.2    86  PRO86       0.2598
    104  O         35.0000   29.8710  101.8950 O.2    86  PRO86      -0.2715
    105  CB        36.5420   32.4910  101.5280 C.3    86  PRO86       0.0310
    106  CG        37.7740   31.8690  102.1160 C.3    86  PRO86       0.0237
    107  CD        37.5150   31.7750  103.5970 C.3    86  PRO86       0.0939
    108  N         33.4100   31.3380  101.2770 N.am   87  CYS87      -0.1968
    109  CA        32.6160   30.2960  100.6300 C.3    87  CYS87       0.1712
    110  C         33.3030   29.9420   99.2970 C.2    87  CYS87       0.2296
    111  O         34.2380   30.6230   98.8660 O.2    87  CYS87      -0.2864
    112  CB        31.1590   30.7510  100.4140 C.3    87  CYS87       0.0983
    113  SG        30.8660   31.6720   98.8730 S.3    87  CYS87      -0.0798
@<TRIPOS>BOND
     1   111   110    2
     2   113   112    1
     3    65    64    2
     4    51    52    1
     5   110   109    1
     6    64    63    1
     7    54    53    2
     8    41    42    2
     9    41    40    1
    10    56    55    1
    11    52    55    1
    12    52    53    1
    13   112   109    1
    14    66    63    1
    15    66    67    1
    16   109   108    1
    17    53    57   am
    18    63    62    1
    19    40    39    1
    20    40    43    1
    21    47    45   ar
    22    47    49   ar
    23   108   103   am
    24    50    49    1
    25    62    59   am
    26    60    59    2
    27    45    44   ar
    28   105   106    1
    29   105   102    1
    30    49    48   ar
    31    59    58    1
    32   103   104    2
    33   103   102    1
    34    67    68    1
    35    57    58    1
    36   106   107    1
    37    44    43    1
    38    44    46   ar
    39    48    46   ar
    40    69    68    2
    41   102   101    1
    42    33    32    1
    43    33    34    2
    44    58    61    1
    45    68    70   am
    46    32    35    1
    47    32    31    1
    48    35    36    1
    49   107   101    1
    50   101    97   am
    51    38    36   am
    52    17    15   ar
    53    36    37    2
    54    13    12    2
    55    15    14    1
    56    15    16   ar
    57    98    97    2
    58    14    11    1
    59    97    96    1
    60    11    12    1
    61    11    10    1
    62    99    96    1
    63    99   100    1
    64    96    95    1
    65     4     3    2
    66    75    72    1
    67    10     3   am
    68    27    26    2
    69     3     2    1
    70    29    28    1
    71    71    72    1
    72    90    89    2
    73    28    30    1
    74    28    25    1
    75    95    89   am
    76    72    73    1
    77    26    25    1
    78    89    88    1
    79    23    22    1
    80    18    19    1
    81    25    24    1
    82    24    20   am
    83     5     2    1
    84     5     6    1
    85    91    88    1
    86    91    92    1
    87     2     1    1
    88    73    74    2
    89    88    87    1
    90    22    19    1
    91    93    92    1
    92    19    20    1
    93    20    21    2
    94     9     7   ar
    95     7     6    1
    96     7     8   ar
    97    92    94    1
    98    86    84    1
    99    85    84    1
   100    84    83    2
   101    83    82    1
   102    82    81    1
   103    80    81    1
   104    80    77    1
   105    79    78    2
   106    78    77    1
   107    77    76    1
