@<TRIPOS>MOLECULE
tmp/2z3kA00.pdb
 118 116 0 0 0
SMALL
GASTEIGER

@<TRIPOS>ATOM
      1  N         24.6490   63.3680    7.7900 N.3    46  PHE46      -0.1241
      2  CA        24.8010   62.3970    8.8740 C.3    46  PHE46       0.1605
      3  C         24.8140   63.1110   10.2130 C.2    46  PHE46       0.2264
      4  O         25.2900   64.2490   10.3350 O.2    46  PHE46      -0.2867
      5  CB        26.0690   61.5400    8.7200 C.3    46  PHE46       0.0534
      6  CG        27.3460   62.3200    8.7290 C.ar   46  PHE46      -0.0203
      7  CD1       27.8400   62.8690    9.9090 C.ar   46  PHE46      -0.0042
      8  CD2       28.0530   62.5260    7.5460 C.ar   46  PHE46      -0.0042
      9  CE1       29.0240   63.6230    9.9120 C.ar   46  PHE46      -0.0003
     10  CE2       29.2380   63.2770    7.5400 C.ar   46  PHE46      -0.0003
     11  CZ        29.7230   63.8300    8.7310 C.ar   46  PHE46      -0.0000
     12  N         25.8940   63.7300   14.1980 N.3    48  TRP48      -0.1241
     13  CA        27.1080   63.6450   15.0070 C.3    48  TRP48       0.1605
     14  C         27.0630   64.7470   16.0560 C.2    48  TRP48       0.2264
     15  O         26.8980   65.9170   15.7280 O.2    48  TRP48      -0.2867
     16  CB        28.3610   63.8330   14.1640 C.3    48  TRP48       0.0550
     17  CG        29.6170   63.6150   14.9590 C.ar   48  TRP48       0.0003
     18  CD1       30.3660   62.4730   15.0160 C.ar   48  TRP48       0.0946
     19  CD2       30.2460   64.5470   15.8460 C.ar   48  TRP48       0.0152
     20  NE1       31.4220   62.6380   15.8840 N.ar   48  TRP48      -0.2442
     21  CE2       31.3700   63.9010   16.4050 C.ar   48  TRP48       0.0810
     22  CE3       29.9670   65.8620   16.2270 C.ar   48  TRP48       0.0012
     23  CZ2       32.2140   64.5290   17.3190 C.ar   48  TRP48       0.0191
     24  CZ3       30.8100   66.4870   17.1420 C.ar   48  TRP48       0.0001
     25  CH2       31.9180   65.8190   17.6770 C.ar   48  TRP48       0.0015
     26  N         37.1660   58.6820   20.1630 N.3   107  GLU107     -0.1245
     27  CA        36.2200   59.1490   19.1580 C.3   107  GLU107      0.1567
     28  C         34.7790   58.7040   19.3740 C.2   107  GLU107      0.2260
     29  O         33.8470   59.5080   19.2580 O.2   107  GLU107     -0.2867
     30  CB        36.6870   58.7020   17.7670 C.3   107  GLU107      0.0388
     31  CG        38.1330   59.0870   17.4240 C.3   107  GLU107      0.1160
     32  CD        39.1520   58.0070   17.7820 C.2   107  GLU107      0.3649
     33  OE1       39.2260   57.6090   18.9660 O.co2 107  GLU107     -0.2457
     34  OE2       39.8840   57.5560   16.8700 O.co2 107  GLU107     -0.2457
     35  N         30.7490   59.9220   21.1780 N.3   110  TRP110     -0.1241
     36  CA        29.4840   60.4930   20.7240 C.3   110  TRP110      0.1605
     37  C         28.4260   59.3950   20.6070 C.2   110  TRP110      0.2264
     38  O         27.2130   59.6670   20.5700 O.2   110  TRP110     -0.2867
     39  CB        29.6500   61.2090   19.3760 C.3   110  TRP110      0.0550
     40  CG        29.6240   60.3190   18.1590 C.ar  110  TRP110      0.0003
     41  CD1       30.6640   59.5970   17.6340 C.ar  110  TRP110      0.0946
     42  CD2       28.4890   60.0550   17.3160 C.ar  110  TRP110      0.0152
     43  NE1       30.2430   58.9030   16.5150 N.ar  110  TRP110     -0.2442
     44  CE2       28.9150   59.1660   16.3030 C.ar  110  TRP110      0.0810
     45  CE3       27.1540   60.4840   17.3220 C.ar  110  TRP110      0.0012
     46  CZ2       28.0550   58.7010   15.3140 C.ar  110  TRP110      0.0191
     47  CZ3       26.3020   60.0180   16.3360 C.ar  110  TRP110      0.0001
     48  CH2       26.7550   59.1370   15.3480 C.ar  110  TRP110      0.0015
     49  N         30.7270   54.2320    9.3420 N.3   155  GLU155     -0.1231
     50  CA        30.4120   54.9690   10.5420 C.3   155  GLU155      0.1699
     51  C         31.5630   54.9370   11.5150 C.2   155  GLU155      0.2593
     52  O         31.9230   55.9780   12.0680 O.2   155  GLU155     -0.2718
     53  CB        29.1550   54.3990   11.1840 C.3   155  GLU155      0.0402
     54  CG        27.8890   54.8920   10.5190 C.3   155  GLU155      0.1161
     55  CD        27.5850   56.3330   10.8780 C.2   155  GLU155      0.3649
     56  OE1       27.2190   56.5790   12.0590 O.co2 155  GLU155     -0.2457
     57  OE2       27.7240   57.2100    9.9870 O.co2 155  GLU155     -0.2457
     58  N         32.1510   53.7550   11.7120 N.am  156  SER156     -0.1938
     59  CA        33.2660   53.6110   12.6440 C.3   156  SER156      0.2055
     60  C         33.9960   52.2530   12.6700 C.2   156  SER156      0.2642
     61  O         33.4670   51.2290   12.2430 O.2   156  SER156     -0.2714
     62  CB        32.7770   53.9470   14.0540 C.3   156  SER156      0.2130
     63  OG        33.7920   53.7320   15.0170 O.3   156  SER156     -0.2179
     64  N         35.2310   52.2790   13.1780 N.am  157  MET157     -0.1976
     65  CA        36.0750   51.0890   13.3270 C.3   157  MET157      0.1605
     66  C         36.5570   51.0440   14.7730 C.2   157  MET157      0.2287
     67  O         36.4700   52.0330   15.5060 O.2   157  MET157     -0.2864
     68  CB        37.3140   51.1440   12.4310 C.3   157  MET157      0.0413
     69  CG        37.0420   51.3260   10.9680 C.3   157  MET157      0.0598
     70  SD        38.5450   51.0880    9.9970 S.3   157  MET157     -0.1393
     71  CE        38.2940   49.3590    9.4710 C.3   157  MET157      0.0692
     72  N         33.5730   58.1130    3.9420 N.3   186  CYS186     -0.1221
     73  CA        34.4290   58.2250    5.1170 C.3   186  CYS186      0.1808
     74  C         34.1140   59.4760    5.9170 C.2   186  CYS186      0.2601
     75  O         34.8240   59.8030    6.8630 O.2   186  CYS186     -0.2717
     76  CB        35.9030   58.2350    4.7260 C.3   186  CYS186      0.0970
     77  SG        36.5360   56.6220    4.2510 S.3   186  CYS186     -0.0800
     78  N         33.0490   60.1730    5.5300 N.am  187  GLN187     -0.1965
     79  CA        32.6050   61.3860    6.2170 C.3   187  GLN187      0.1733
     80  C         33.7110   62.4180    6.2850 C.2   187  GLN187      0.2616
     81  O         33.7700   63.3120    5.4560 O.2   187  GLN187     -0.2715
     82  CB        32.1150   61.0130    7.6070 C.3   187  GLN187      0.0408
     83  CG        31.1610   59.8380    7.5490 C.3   187  GLN187      0.0908
     84  CD        30.9990   59.1530    8.8780 C.2   187  GLN187      0.2608
     85  OE1       31.9740   58.6630    9.4590 O.2   187  GLN187     -0.2717
     86  NE2       29.7590   59.1050    9.3760 N.am  187  GLN187     -0.0878
     87  N         34.5910   62.2960    7.2670 N.am  188  VAL188     -0.1977
     88  CA        35.7040   63.2260    7.3880 C.3   188  VAL188      0.1596
     89  C         37.0240   62.4650    7.3380 C.2   188  VAL188      0.2287
     90  O         37.1380   61.3640    7.8710 O.2   188  VAL188     -0.2864
     91  CB        35.6400   64.0110    8.6980 C.3   188  VAL188      0.0276
     92  CG1       36.6930   65.1100    8.6870 C.3   188  VAL188      0.0022
     93  CG2       34.2440   64.5930    8.8860 C.3   188  VAL188      0.0022
     94  N         40.9960   61.6640    8.1480 N.3   190  ASN190     -0.1240
     95  CA        41.8970   61.7090    9.3110 C.3   190  ASN190      0.1653
     96  C         43.1920   60.9320    9.0100 C.2   190  ASN190      0.2266
     97  O         43.3300   60.3420    7.9390 O.2   190  ASN190     -0.2867
     98  CB        41.2160   61.1350   10.5640 C.3   190  ASN190      0.1155
     99  CG        41.0080   59.6300   10.4960 C.2   190  ASN190      0.2627
    100  OD1       41.9530   58.8610   10.3180 O.2   190  ASN190     -0.2716
    101  ND2       39.7600   59.2040   10.6590 N.am  190  ASN190     -0.0877
    102  N         44.5750   57.9900   10.1820 N.3   192  HIS192     -0.1226
    103  CA        44.4150   56.5570    9.9370 C.3   192  HIS192      0.1752
    104  C         43.7520   56.3170    8.5940 C.2   192  HIS192      0.2596
    105  O         44.2910   55.6270    7.7290 O.2   192  HIS192     -0.2718
    106  CB        43.5820   55.9020   11.0550 C.3   192  HIS192      0.0759
    107  CG        43.4790   54.4060   10.9460 C.ar  192  HIS192      0.0818
    108  ND1       42.3890   53.7690   10.3900 N.ar  192  HIS192     -0.2268
    109  CD2       44.3400   53.4240   11.3100 C.ar  192  HIS192      0.1154
    110  CE1       42.5820   52.4610   10.4150 C.ar  192  HIS192      0.1986
    111  NE2       43.7590   52.2240   10.9680 N.ar  192  HIS192     -0.2212
    112  N         42.5790   56.9100    8.4290 N.am  193  THR193     -0.1953
    113  CA        41.8060   56.7680    7.2110 C.3   193  THR193      0.1897
    114  C         42.6210   57.1910    5.9710 C.2   193  THR193      0.2313
    115  O         42.5970   56.5170    4.9320 O.2   193  THR193     -0.2863
    116  CB        40.4720   57.5710    7.3480 C.3   193  THR193      0.1794
    117  OG1       39.5440   57.1320    6.3580 O.3   193  THR193     -0.2208
    118  CG2       40.7000   59.0530    7.1850 C.3   193  THR193      0.0378
@<TRIPOS>BOND
     1    72    73    1
     2    77    76    1
     3    76    73    1
     4   115   114    2
     5    73    74    1
     6    81    80    2
     7    78    74   am
     8    78    79    1
     9    74    75    2
    10   114   113    1
    11    79    80    1
    12    79    82    1
    13    80    87   am
    14   117   116    1
    15   118   116    1
    16   113   116    1
    17   113   112    1
    18    87    88    1
    19    89    88    1
    20    89    90    2
    21    88    91    1
    22    10     8   ar
    23    10    11   ar
    24     8     6   ar
    25    83    82    1
    26    83    84    1
    27   105   104    2
    28     1     2    1
    29    97    96    2
    30    94    95    1
    31   112   104   am
    32   104   103    1
    33    92    91    1
    34    91    93    1
    35     5     6    1
    36     5     2    1
    37     6     7   ar
    38    11     9   ar
    39     2     3    1
    40    84    86   am
    41    84    85    2
    42    96    95    1
    43    95    98    1
    44    49    50    1
    45    71    70    1
    46     7     9   ar
    47   103   102    1
    48   103   106    1
    49    57    55   ar
    50    70    69    1
    51     3     4    2
    52   100    99    2
    53   108   110   ar
    54   108   107   ar
    55   110   111   ar
    56    99    98    1
    57    99   101   am
    58    54    55    1
    59    54    53    1
    60    50    53    1
    61    50    51    1
    62    55    56   ar
    63   107   106    1
    64   107   109   ar
    65   111   109   ar
    66    69    68    1
    67    51    58   am
    68    51    52    2
    69    58    59    1
    70    61    60    2
    71    68    65    1
    72    59    60    1
    73    59    62    1
    74    60    64   am
    75    64    65    1
    76    65    66    1
    77    62    63    1
    78    16    17    1
    79    16    13    1
    80    12    13    1
    81    66    67    2
    82    17    18   ar
    83    17    19   ar
    84    13    14    1
    85    18    20   ar
    86    46    48   ar
    87    46    44   ar
    88    48    47   ar
    89    15    14    2
    90    19    22   ar
    91    19    21   ar
    92    20    21   ar
    93    22    24   ar
    94    44    43   ar
    95    44    42   ar
    96    47    45   ar
    97    21    23   ar
    98    43    41   ar
    99    34    32   ar
   100    24    25   ar
   101    42    45   ar
   102    42    40   ar
   103    23    25   ar
   104    31    30    1
   105    31    32    1
   106    41    40   ar
   107    30    27    1
   108    32    33   ar
   109    40    39    1
   110    27    28    1
   111    27    26    1
   112    29    28    2
   113    39    36    1
   114    38    37    2
   115    37    36    1
   116    36    35    1
