@<TRIPOS>MOLECULE
tmp/2z3kA01.pdb
 116 110 0 0 0
SMALL
GASTEIGER

@<TRIPOS>ATOM
      1  N         36.6040   56.6670    0.1210 N.3    66  LEU66      -0.1245
      2  CA        37.5630   55.5990   -0.1450 C.3    66  LEU66       0.1561
      3  C         37.1870   54.7060   -1.3320 C.2    66  LEU66       0.2260
      4  O         36.2330   53.9360   -1.2780 O.2    66  LEU66      -0.2867
      5  CB        37.7690   54.7240    1.0930 C.3    66  LEU66       0.0270
      6  CG        38.7110   53.5290    0.8510 C.3    66  LEU66       0.0019
      7  CD1       40.0640   54.0230    0.3550 C.3    66  LEU66       0.0001
      8  CD2       38.8800   52.7220    2.1420 C.3    66  LEU66       0.0001
      9  N         33.8290   46.8120   12.1230 N.3   143  MET143     -0.1230
     10  CA        33.3770   48.0700   11.5540 C.3   143  MET143      0.1702
     11  C         31.9190   47.9740   11.1100 C.2   143  MET143      0.2592
     12  O         31.4460   46.9110   10.6900 O.2   143  MET143     -0.2718
     13  CB        34.2590   48.4580   10.3670 C.3   143  MET143      0.0401
     14  CG        34.2950   47.4240    9.2520 C.3   143  MET143      0.0596
     15  SD        34.8240   48.1200    7.6550 S.3   143  MET143     -0.1393
     16  CE        33.2440   48.7500    7.0270 C.3   143  MET143      0.0692
     17  N         31.2030   49.0850   11.2130 N.am  144  TYR144     -0.1976
     18  CA        29.8150   49.0950   10.7990 C.3   144  TYR144      0.1639
     19  C         29.5110   50.3530    9.9900 C.2   144  TYR144      0.2290
     20  O         30.3030   51.2900    9.9540 O.2   144  TYR144     -0.2864
     21  CB        28.9030   49.0120   12.0190 C.3   144  TYR144      0.0560
     22  CG        28.8310   50.2810   12.8250 C.ar  144  TYR144     -0.0198
     23  CD1       29.9170   50.7240   13.5630 C.ar  144  TYR144     -0.0009
     24  CD2       27.6710   51.0500   12.8340 C.ar  144  TYR144     -0.0009
     25  CE1       29.8520   51.9150   14.2980 C.ar  144  TYR144      0.0417
     26  CE2       27.5930   52.2340   13.5590 C.ar  144  TYR144      0.0417
     27  CZ        28.6860   52.6640   14.2860 C.ar  144  TYR144      0.1957
     28  OH        28.6180   53.8530   14.9730 O.3   144  TYR144     -0.2866
     29  N         30.7020   54.4550    5.8770 N.3   154  GLY154     -0.1210
     30  CA        31.3890   53.9720    7.0500 C.3   154  GLY154      0.1956
     31  C         31.0930   54.8600    8.2340 C.2   154  GLY154      0.2612
     32  O         31.1910   56.0890    8.1620 O.2   154  GLY154     -0.2717
     33  N         30.7270   54.2320    9.3420 N.am  155  GLU155     -0.1965
     34  CA        30.4120   54.9690   10.5420 C.3   155  GLU155      0.1733
     35  C         31.5630   54.9370   11.5150 C.2   155  GLU155      0.2617
     36  O         31.9230   55.9780   12.0680 O.2   155  GLU155     -0.2715
     37  CB        29.1550   54.3990   11.1840 C.3   155  GLU155      0.0429
     38  CG        27.8890   54.8920   10.5190 C.3   155  GLU155      0.1163
     39  CD        27.5850   56.3330   10.8780 C.2   155  GLU155      0.3649
     40  OE1       27.2190   56.5790   12.0590 O.co2 155  GLU155     -0.2457
     41  OE2       27.7240   57.2100    9.9870 O.co2 155  GLU155     -0.2457
     42  N         32.1510   53.7550   11.7120 N.am  156  SER156     -0.1936
     43  CA        33.2660   53.6110   12.6440 C.3   156  SER156      0.2055
     44  C         33.9960   52.2530   12.6700 C.2   156  SER156      0.2642
     45  O         33.4670   51.2290   12.2430 O.2   156  SER156     -0.2714
     46  CB        32.7770   53.9470   14.0540 C.3   156  SER156      0.2130
     47  OG        33.7920   53.7320   15.0170 O.3   156  SER156     -0.2179
     48  N         35.2310   52.2790   13.1780 N.am  157  MET157     -0.1976
     49  CA        36.0750   51.0890   13.3270 C.3   157  MET157      0.1605
     50  C         36.5570   51.0440   14.7730 C.2   157  MET157      0.2287
     51  O         36.4700   52.0330   15.5060 O.2   157  MET157     -0.2864
     52  CB        37.3140   51.1440   12.4310 C.3   157  MET157      0.0413
     53  CG        37.0420   51.3260   10.9680 C.3   157  MET157      0.0598
     54  SD        38.5450   51.0880    9.9970 S.3   157  MET157     -0.1393
     55  CE        38.2940   49.3590    9.4710 C.3   157  MET157      0.0692
     56  N         38.5680   46.0140    7.0840 N.3   169  LEU169     -0.1245
     57  CA        38.4400   46.8210    5.8910 C.3   169  LEU169      0.1561
     58  C         38.9600   46.0630    4.6690 C.2   169  LEU169      0.2260
     59  O         38.3080   46.0130    3.6220 O.2   169  LEU169     -0.2867
     60  CB        39.1990   48.1280    6.0800 C.3   169  LEU169      0.0270
     61  CG        38.8930   49.2320    5.0660 C.3   169  LEU169      0.0019
     62  CD1       37.3740   49.4020    4.8930 C.3   169  LEU169      0.0001
     63  CD2       39.5540   50.5260    5.5400 C.3   169  LEU169      0.0001
     64  N         33.1530   54.0360   -0.7130 N.3   184  ILE184     -0.1231
     65  CA        33.0050   53.9390    0.7230 C.3   184  ILE184      0.1692
     66  C         33.0680   55.3440    1.2830 C.2   184  ILE184      0.2592
     67  O         34.0800   56.0300    1.1320 O.2   184  ILE184     -0.2718
     68  CB        34.1160   53.1200    1.3720 C.3   184  ILE184      0.0266
     69  CG1       34.0500   51.6750    0.8870 C.3   184  ILE184      0.0019
     70  CG2       33.9720   53.1820    2.8860 C.3   184  ILE184      0.0020
     71  CD1       35.1330   50.8060    1.4530 C.3   184  ILE184      0.0001
     72  N         31.9720   55.7680    1.9060 N.am  185  ASP185     -0.1960
     73  CA        31.8870   57.0870    2.5150 C.3   185  ASP185      0.1840
     74  C         32.7510   57.0790    3.7800 C.2   185  ASP185      0.2622
     75  O         32.6960   56.1360    4.5720 O.2   185  ASP185     -0.2715
     76  CB        30.4150   57.4020    2.8440 C.3   185  ASP185      0.1450
     77  CG        30.2250   58.7520    3.5530 C.2   185  ASP185      0.3671
     78  OD1       30.9700   59.7130    3.2660 O.co2 185  ASP185     -0.2456
     79  OD2       29.3060   58.8560    4.3940 O.co2 185  ASP185     -0.2456
     80  N         33.5730   58.1130    3.9420 N.am  186  CYS186     -0.1954
     81  CA        34.4290   58.2250    5.1170 C.3   186  CYS186      0.1843
     82  C         34.1140   59.4760    5.9170 C.2   186  CYS186      0.2625
     83  O         34.8240   59.8030    6.8630 O.2   186  CYS186     -0.2714
     84  CB        35.9030   58.2350    4.7260 C.3   186  CYS186      0.0997
     85  SG        36.5360   56.6220    4.2510 S.3   186  CYS186     -0.0797
     86  N         33.0490   60.1730    5.5300 N.am  187  GLN187     -0.1963
     87  CA        32.6050   61.3860    6.2170 C.3   187  GLN187      0.1733
     88  C         33.7110   62.4180    6.2850 C.2   187  GLN187      0.2616
     89  O         33.7700   63.3120    5.4560 O.2   187  GLN187     -0.2715
     90  CB        32.1150   61.0130    7.6070 C.3   187  GLN187      0.0408
     91  CG        31.1610   59.8380    7.5490 C.3   187  GLN187      0.0908
     92  CD        30.9990   59.1530    8.8780 C.2   187  GLN187      0.2608
     93  OE1       31.9740   58.6630    9.4590 O.2   187  GLN187     -0.2717
     94  NE2       29.7590   59.1050    9.3760 N.am  187  GLN187     -0.0878
     95  N         34.5910   62.2960    7.2670 N.am  188  VAL188     -0.1977
     96  CA        35.7040   63.2260    7.3880 C.3   188  VAL188      0.1596
     97  C         37.0240   62.4650    7.3380 C.2   188  VAL188      0.2287
     98  O         37.1380   61.3640    7.8710 O.2   188  VAL188     -0.2864
     99  CB        35.6400   64.0110    8.6980 C.3   188  VAL188      0.0276
    100  CG1       36.6930   65.1100    8.6870 C.3   188  VAL188      0.0022
    101  CG2       34.2440   64.5930    8.8860 C.3   188  VAL188      0.0022
    102  N         40.9960   61.6640    8.1480 N.3   190  ASN190     -0.1240
    103  CA        41.8970   61.7090    9.3110 C.3   190  ASN190      0.1653
    104  C         43.1920   60.9320    9.0100 C.2   190  ASN190      0.2266
    105  O         43.3300   60.3420    7.9390 O.2   190  ASN190     -0.2867
    106  CB        41.2160   61.1350   10.5640 C.3   190  ASN190      0.1155
    107  CG        41.0080   59.6300   10.4960 C.2   190  ASN190      0.2627
    108  OD1       41.9530   58.8610   10.3180 O.2   190  ASN190     -0.2716
    109  ND2       39.7600   59.2040   10.6590 N.am  190  ASN190     -0.0877
    110  N         42.5790   56.9100    8.4290 N.3   193  THR193     -0.1218
    111  CA        41.8060   56.7680    7.2110 C.3   193  THR193      0.1862
    112  C         42.6210   57.1910    5.9710 C.2   193  THR193      0.2287
    113  O         42.5970   56.5170    4.9320 O.2   193  THR193     -0.2866
    114  CB        40.4720   57.5710    7.3480 C.3   193  THR193      0.1770
    115  OG1       39.5440   57.1320    6.3580 O.3   193  THR193     -0.2211
    116  CG2       40.7000   59.0530    7.1850 C.3   193  THR193      0.0375
@<TRIPOS>BOND
     1     3     4    2
     2     3     2    1
     3    64    65    1
     4     2     1    1
     5     2     5    1
     6     7     6    1
     7    65    66    1
     8    65    68    1
     9     6     5    1
    10     6     8    1
    11    69    68    1
    12    69    71    1
    13    67    66    2
    14    66    72   am
    15    68    70    1
    16    72    73    1
    17    73    76    1
    18    73    74    1
    19    76    77    1
    20    78    77   ar
    21    77    79   ar
    22    59    58    2
    23    74    80   am
    24    74    75    2
    25    80    81    1
    26    85    84    1
    27    58    57    1
    28    84    81    1
    29    62    61    1
    30   113   112    2
    31    61    63    1
    32    61    60    1
    33    81    82    1
    34    89    88    2
    35    86    82   am
    36    86    87    1
    37    29    30    1
    38    57    60    1
    39    57    56    1
    40    82    83    2
    41   112   111    1
    42    87    88    1
    43    87    90    1
    44    88    95   am
    45   115   114    1
    46    16    15    1
    47    30    31    1
    48   116   114    1
    49   111   114    1
    50   111   110    1
    51    95    96    1
    52    97    96    1
    53    97    98    2
    54    96    99    1
    55    91    90    1
    56    91    92    1
    57    15    14    1
    58   105   104    2
    59   102   103    1
    60    32    31    2
    61    31    33   am
    62   100    99    1
    63    99   101    1
    64    92    94   am
    65    92    93    2
    66   104   103    1
    67    14    13    1
    68   103   106    1
    69    33    34    1
    70    55    54    1
    71    20    19    2
    72    41    39   ar
    73    19    18    1
    74    54    53    1
    75   108   107    2
    76    13    10    1
    77   107   106    1
    78   107   109   am
    79    38    39    1
    80    38    37    1
    81    34    37    1
    82    34    35    1
    83    12    11    2
    84    18    17    1
    85    18    21    1
    86    39    40   ar
    87    53    52    1
    88    11    17   am
    89    11    10    1
    90    35    42   am
    91    35    36    2
    92    10     9    1
    93    42    43    1
    94    21    22    1
    95    45    44    2
    96    52    49    1
    97    43    44    1
    98    43    46    1
    99    44    48   am
   100    22    24   ar
   101    22    23   ar
   102    24    26   ar
   103    48    49    1
   104    49    50    1
   105    26    27   ar
   106    23    25   ar
   107    46    47    1
   108    27    25   ar
   109    27    28    1
   110    50    51    2
