@<TRIPOS>MOLECULE
tmp/2z3lB00.pdb
 239 234 0 0 0
SMALL
GASTEIGER

@<TRIPOS>ATOM
      1  N        -31.3800  -39.1680   13.9570 N.3    41  TYR41      -0.1241
      2  CA       -32.6480  -39.1890   13.2250 C.3    41  TYR41       0.1605
      3  C        -32.5300  -39.0570   11.7140 C.2    41  TYR41       0.2264
      4  O        -33.4290  -39.4820   10.9870 O.2    41  TYR41      -0.2867
      5  CB       -33.5940  -38.1120   13.7580 C.3    41  TYR41       0.0534
      6  CG       -34.3610  -38.5560   14.9810 C.ar   41  TYR41      -0.0201
      7  CD1      -35.5720  -39.2320   14.8640 C.ar   41  TYR41      -0.0009
      8  CD2      -33.8440  -38.3540   16.2590 C.ar   41  TYR41      -0.0009
      9  CE1      -36.2470  -39.7000   15.9890 C.ar   41  TYR41       0.0417
     10  CE2      -34.5090  -38.8170   17.3880 C.ar   41  TYR41       0.0417
     11  CZ       -35.7060  -39.4900   17.2500 C.ar   41  TYR41       0.1957
     12  OH       -36.3490  -39.9530   18.3770 O.3    41  TYR41      -0.2866
     13  N        -32.4180  -44.0170   16.6640 N.3    46  PHE46      -0.1228
     14  CA       -33.1890  -43.3840   17.7390 C.3    46  PHE46       0.1721
     15  C        -32.9000  -43.9980   19.1150 C.2    46  PHE46       0.2437
     16  O        -32.6080  -45.1940   19.2300 O.2    46  PHE46      -0.2733
     17  CB       -34.6930  -43.4640   17.4310 C.3    46  PHE46       0.0547
     18  CG       -35.2270  -44.8630   17.3640 C.ar   46  PHE46      -0.0202
     19  CD1      -35.5770  -45.5500   18.5280 C.ar   46  PHE46      -0.0042
     20  CD2      -35.3430  -45.5150   16.1400 C.ar   46  PHE46      -0.0042
     21  CE1      -36.0320  -46.8700   18.4700 C.ar   46  PHE46      -0.0003
     22  CE2      -35.7970  -46.8380   16.0680 C.ar   46  PHE46      -0.0003
     23  CZ       -36.1410  -47.5170   17.2320 C.ar   46  PHE46      -0.0000
     24  N        -32.9660  -43.1760   20.1790 N.am   47  PRO47      -0.2718
     25  CA       -32.7160  -43.6140   21.5590 C.3    47  PRO47       0.1535
     26  C        -33.9130  -44.2880   22.2240 C.2    47  PRO47       0.2599
     27  O        -35.0420  -43.8280   22.1070 O.2    47  PRO47      -0.2715
     28  CB       -32.3260  -42.3170   22.2600 C.3    47  PRO47       0.0310
     29  CG       -33.1890  -41.3250   21.5840 C.3    47  PRO47       0.0237
     30  CD       -33.0570  -41.7060   20.1170 C.3    47  PRO47       0.0939
     31  N        -33.6560  -45.3810   22.9270 N.am   48  TRP48      -0.1960
     32  CA       -34.7200  -46.1010   23.6090 C.3    48  TRP48       0.1771
     33  C        -34.1260  -46.9530   24.7210 C.2    48  TRP48       0.2619
     34  O        -33.5710  -48.0170   24.4760 O.2    48  TRP48      -0.2715
     35  CB       -35.4720  -46.9750   22.6140 C.3    48  TRP48       0.0590
     36  CG       -36.8120  -47.3730   23.0990 C.ar   48  TRP48       0.0006
     37  CD1      -37.5480  -46.7530   24.0620 C.ar   48  TRP48       0.0946
     38  CD2      -37.6100  -48.4590   22.6180 C.ar   48  TRP48       0.0152
     39  NE1      -38.7570  -47.3860   24.2140 N.ar   48  TRP48      -0.2442
     40  CE2      -38.8210  -48.4380   23.3380 C.ar   48  TRP48       0.0810
     41  CE3      -37.4180  -49.4530   21.6470 C.ar   48  TRP48       0.0012
     42  CZ2      -39.8400  -49.3730   23.1220 C.ar   48  TRP48       0.0191
     43  CZ3      -38.4360  -50.3860   21.4340 C.ar   48  TRP48       0.0001
     44  CH2      -39.6290  -50.3350   22.1710 C.ar   48  TRP48       0.0015
     45  N        -34.2570  -46.4790   25.9490 N.am   49  PHE49      -0.1974
     46  CA       -33.6940  -47.1770   27.0890 C.3    49  PHE49       0.1639
     47  C        -34.5300  -46.9690   28.3440 C.2    49  PHE49       0.2290
     48  O        -35.2150  -45.9530   28.4920 O.2    49  PHE49      -0.2864
     49  CB       -32.2760  -46.6570   27.3280 C.3    49  PHE49       0.0560
     50  CG       -32.2220  -45.1810   27.5960 C.ar   49  PHE49      -0.0200
     51  CD1      -32.1430  -44.6980   28.8920 C.ar   49  PHE49      -0.0042
     52  CD2      -32.3310  -44.2700   26.5500 C.ar   49  PHE49      -0.0042
     53  CE1      -32.1790  -43.3290   29.1430 C.ar   49  PHE49      -0.0003
     54  CE2      -32.3670  -42.9030   26.7960 C.ar   49  PHE49      -0.0003
     55  CZ       -32.2920  -42.4310   28.0930 C.ar   49  PHE49      -0.0000
     56  N        -46.3050  -45.9840    9.3280 N.3    66  LEU66      -0.1245
     57  CA       -47.7150  -45.7050    9.1560 C.3    66  LEU66       0.1561
     58  C        -47.9290  -44.7510    7.9930 C.2    66  LEU66       0.2260
     59  O        -47.4540  -43.6170    8.0140 O.2    66  LEU66      -0.2867
     60  CB       -48.3110  -45.0880   10.4180 C.3    66  LEU66       0.0270
     61  CG       -49.7050  -44.4850   10.1840 C.3    66  LEU66       0.0019
     62  CD1      -50.7270  -45.5730    9.9380 C.3    66  LEU66       0.0001
     63  CD2      -50.1070  -43.6680   11.3760 C.3    66  LEU66       0.0001
     64  N        -47.7750  -40.8660   31.7330 N.3   104  ASP104     -0.1239
     65  CA       -48.7580  -41.8800   31.3700 C.3   104  ASP104      0.1674
     66  C        -48.4410  -43.2270   32.0380 C.2   104  ASP104      0.2266
     67  O        -49.3340  -44.0500   32.2460 O.2   104  ASP104     -0.2867
     68  CB       -48.7840  -42.0360   29.8480 C.3   104  ASP104      0.1410
     69  CG       -50.0240  -42.7530   29.3550 C.2   104  ASP104      0.3668
     70  OD1      -50.3020  -43.8650   29.8530 O.co2 104  ASP104     -0.2456
     71  OD2      -50.7190  -42.2070   28.4680 O.co2 104  ASP104     -0.2456
     72  N        -46.6050  -45.8320   30.8870 N.3   106  GLU106     -0.1245
     73  CA       -46.6180  -47.0020   30.0130 C.3   106  GLU106      0.1567
     74  C        -45.7370  -46.8330   28.7790 C.2   106  GLU106      0.2260
     75  O        -44.7730  -47.5810   28.5930 O.2   106  GLU106     -0.2867
     76  CB       -48.0590  -47.3150   29.6000 C.3   106  GLU106      0.0388
     77  CG       -48.8790  -47.9540   30.7190 C.3   106  GLU106      0.1160
     78  CD       -50.3810  -47.7380   30.5730 C.2   106  GLU106      0.3649
     79  OE1      -50.8340  -46.5820   30.7240 O.co2 106  GLU106     -0.2457
     80  OE2      -51.1100  -48.7210   30.3140 O.co2 106  GLU106     -0.2457
     81  N        -40.5930  -44.9710   30.1620 N.3   108  TRP108     -0.1227
     82  CA       -39.2360  -44.9570   29.6360 C.3   108  TRP108      0.1737
     83  C        -38.8440  -43.5560   29.2050 C.2   108  TRP108      0.2595
     84  O        -37.7520  -43.3370   28.6780 O.2   108  TRP108     -0.2718
     85  CB       -39.1070  -45.9350   28.4660 C.3   108  TRP108      0.0564
     86  CG       -38.8140  -47.3580   28.9020 C.ar  108  TRP108      0.0003
     87  CD1      -39.1460  -47.9410   30.0990 C.ar  108  TRP108      0.0946
     88  CD2      -38.1530  -48.3760   28.1330 C.ar  108  TRP108      0.0152
     89  NE1      -38.7300  -49.2530   30.1200 N.ar  108  TRP108     -0.2442
     90  CE2      -38.1200  -49.5470   28.9280 C.ar  108  TRP108      0.0810
     91  CE3      -37.5860  -48.4140   26.8480 C.ar  108  TRP108      0.0012
     92  CZ2      -37.5410  -50.7430   28.4780 C.ar  108  TRP108      0.0191
     93  CZ3      -37.0100  -49.6090   26.4000 C.ar  108  TRP108      0.0001
     94  CH2      -36.9940  -50.7530   27.2150 C.ar  108  TRP108      0.0015
     95  N        -39.7430  -42.6030   29.4300 N.am  109  ILE109     -0.1980
     96  CA       -39.4680  -41.2160   29.0860 C.3   109  ILE109      0.1595
     97  C        -38.9790  -40.5050   30.3320 C.2   109  ILE109      0.2287
     98  O        -39.7400  -39.8080   30.9940 O.2   109  ILE109     -0.2864
     99  CB       -40.7130  -40.4920   28.5830 C.3   109  ILE109      0.0276
    100  CG1      -41.3200  -41.2610   27.4150 C.3   109  ILE109      0.0022
    101  CG2      -40.3430  -39.0890   28.1420 C.3   109  ILE109      0.0022
    102  CD1      -42.5270  -40.5920   26.8180 C.3   109  ILE109      0.0001
    103  N        -34.8200  -37.4340   28.9140 N.3   113  VAL113     -0.1245
    104  CA       -35.4240  -37.5190   27.5930 C.3   113  VAL113      0.1561
    105  C        -36.3840  -36.3480   27.3550 C.2   113  VAL113      0.2260
    106  O        -36.4370  -35.7850   26.2550 O.2   113  VAL113     -0.2867
    107  CB       -36.1730  -38.8550   27.4230 C.3   113  VAL113      0.0252
    108  CG1      -36.6190  -39.0240   25.9770 C.3   113  VAL113      0.0019
    109  CG2      -35.2680  -40.0010   27.8490 C.3   113  VAL113      0.0019
    110  N        -35.8330  -33.6180   24.3580 N.3   117  TYR117     -0.1241
    111  CA       -36.7970  -33.4050   23.2860 C.3   117  TYR117      0.1605
    112  C        -37.4640  -32.0590   23.3530 C.2   117  TYR117      0.2264
    113  O        -37.8330  -31.4740   22.3320 O.2   117  TYR117     -0.2867
    114  CB       -37.8260  -34.5320   23.2520 C.3   117  TYR117      0.0534
    115  CG       -37.2570  -35.7750   22.6090 C.ar  117  TYR117     -0.0201
    116  CD1      -36.4260  -36.6430   23.3270 C.ar  117  TYR117     -0.0009
    117  CD2      -37.5110  -36.0660   21.2650 C.ar  117  TYR117     -0.0009
    118  CE1      -35.8570  -37.7770   22.7220 C.ar  117  TYR117      0.0417
    119  CE2      -36.9490  -37.1970   20.6490 C.ar  117  TYR117      0.0417
    120  CZ       -36.1210  -38.0500   21.3830 C.ar  117  TYR117      0.1957
    121  OH       -35.5530  -39.1560   20.7740 O.3   117  TYR117     -0.2866
    122  N        -50.0000  -35.9120   20.9260 N.3   141  MET141     -0.1230
    123  CA       -48.8850  -36.7250   20.4610 C.3   141  MET141      0.1702
    124  C        -47.7650  -35.7700   20.1010 C.2   141  MET141      0.2592
    125  O        -47.9850  -34.5660   19.9760 O.2   141  MET141     -0.2718
    126  CB       -49.2670  -37.5340   19.2230 C.3   141  MET141      0.0401
    127  CG       -49.5730  -36.6710   18.0120 C.3   141  MET141      0.0596
    128  SD       -49.0410  -37.4080   16.4430 S.3   141  MET141     -0.1393
    129  CE       -47.2600  -37.2140   16.5740 C.3   141  MET141      0.0692
    130  N        -46.5650  -36.3020   19.9400 N.am  142  TYR142     -0.1976
    131  CA       -45.4350  -35.4670   19.5810 C.3   142  TYR142      0.1639
    132  C        -44.4100  -36.3190   18.8470 C.2   142  TYR142      0.2290
    133  O        -44.3100  -37.5270   19.0830 O.2   142  TYR142     -0.2864
    134  CB       -44.8050  -34.8210   20.8320 C.3   142  TYR142      0.0560
    135  CG       -43.9580  -35.7520   21.6750 C.ar  142  TYR142     -0.0198
    136  CD1      -44.5410  -36.6890   22.5350 C.ar  142  TYR142     -0.0009
    137  CD2      -42.5630  -35.7260   21.5790 C.ar  142  TYR142     -0.0009
    138  CE1      -43.7460  -37.5810   23.2730 C.ar  142  TYR142      0.0417
    139  CE2      -41.7660  -36.6080   22.3090 C.ar  142  TYR142      0.0417
    140  CZ       -42.3620  -37.5310   23.1500 C.ar  142  TYR142      0.1957
    141  OH       -41.5660  -38.4030   23.8480 O.3   142  TYR142     -0.2866
    142  N        -42.8050  -40.5080   14.8860 N.3   152  GLY152     -0.1210
    143  CA       -43.6260  -40.4800   16.0810 C.3   152  GLY152      0.1956
    144  C        -42.8700  -40.9710   17.2940 C.2   152  GLY152      0.2612
    145  O        -42.1800  -41.9850   17.2550 O.2   152  GLY152     -0.2717
    146  N        -42.9920  -40.2310   18.3830 N.am  153  GLU153     -0.1965
    147  CA       -42.3180  -40.5910   19.6080 C.3   153  GLU153      0.1733
    148  C        -43.2900  -41.3180   20.5130 C.2   153  GLU153      0.2617
    149  O        -43.0420  -42.4420   20.9390 O.2   153  GLU153     -0.2715
    150  CB       -41.7990  -39.3310   20.2900 C.3   153  GLU153      0.0429
    151  CG       -40.6840  -38.6720   19.5250 C.3   153  GLU153      0.1163
    152  CD       -39.4670  -39.5640   19.4290 C.2   153  GLU153      0.3649
    153  OE1      -38.7710  -39.7090   20.4570 O.co2 153  GLU153     -0.2457
    154  OE2      -39.2200  -40.1270   18.3360 O.co2 153  GLU153     -0.2457
    155  N        -44.4070  -40.6690   20.7970 N.am  154  SER154     -0.1936
    156  CA       -45.4180  -41.2540   21.6520 C.3   154  SER154      0.2055
    157  C        -46.6260  -40.3400   21.7490 C.2   154  SER154      0.2642
    158  O        -46.5450  -39.1450   21.4530 O.2   154  SER154     -0.2714
    159  CB       -44.8550  -41.4860   23.0490 C.3   154  SER154      0.2130
    160  OG       -45.8700  -41.9430   23.9170 O.3   154  SER154     -0.2179
    161  N        -47.7520  -40.9220   22.1450 N.am  155  MET155     -0.1976
    162  CA       -48.9870  -40.1760   22.3190 C.3   155  MET155      0.1605
    163  C        -49.5820  -40.5860   23.6620 C.2   155  MET155      0.2287
    164  O        -49.1770  -41.5920   24.2330 O.2   155  MET155     -0.2864
    165  CB       -49.9600  -40.4370   21.1550 C.3   155  MET155      0.0413
    166  CG       -50.2170  -41.8970   20.7900 C.3   155  MET155      0.0598
    167  SD       -51.2840  -42.0710   19.3110 S.3   155  MET155     -0.1393
    168  CE       -50.0950  -42.3160   18.0250 C.3   155  MET155      0.0692
    169  N        -54.1320  -37.8490   16.2270 N.3   167  LEU167     -0.1245
    170  CA       -53.5830  -38.5540   15.0800 C.3   167  LEU167      0.1561
    171  C        -54.4210  -38.3900   13.8030 C.2   167  LEU167      0.2260
    172  O        -53.8800  -38.1550   12.7100 O.2   167  LEU167     -0.2867
    173  CB       -53.4330  -40.0370   15.4300 C.3   167  LEU167      0.0270
    174  CG       -52.6610  -40.9250   14.4570 C.3   167  LEU167      0.0019
    175  CD1      -51.3030  -40.3160   14.1230 C.3   167  LEU167      0.0001
    176  CD2      -52.4910  -42.2810   15.0970 C.3   167  LEU167      0.0001
    177  N        -45.0200  -41.6790    8.2460 N.3   182  ILE182     -0.1245
    178  CA       -44.9820  -41.6090    9.7000 C.3   182  ILE182      0.1561
    179  C        -44.1610  -42.7910   10.1910 C.2   182  ILE182      0.2260
    180  O        -44.4790  -43.9510    9.9220 O.2   182  ILE182     -0.2867
    181  CB       -46.3680  -41.7520   10.3540 C.3   182  ILE182      0.0252
    182  CG1      -47.3250  -40.6710    9.8480 C.3   182  ILE182      0.0019
    183  CG2      -46.2180  -41.6670   11.8810 C.3   182  ILE182      0.0019
    184  CD1      -47.2130  -39.3660   10.5740 C.3   182  ILE182      0.0001
    185  N        -42.9310  -45.2410   13.0730 N.3   184  CYS184     -0.1221
    186  CA       -43.4060  -45.7030   14.3730 C.3   184  CYS184      0.1808
    187  C        -42.3090  -46.5290   15.0460 C.2   184  CYS184      0.2601
    188  O        -42.4800  -47.0210   16.1580 O.2   184  CYS184     -0.2717
    189  CB       -44.6680  -46.5510   14.2170 C.3   184  CYS184      0.0970
    190  SG       -46.0510  -45.7120   13.4280 S.3   184  CYS184     -0.0800
    191  N        -41.1770  -46.6510   14.3580 N.am  185  GLN185     -0.1965
    192  CA       -40.0140  -47.4090   14.8220 C.3   185  GLN185      0.1733
    193  C        -40.3460  -48.8720   14.9850 C.2   185  GLN185      0.2616
    194  O        -39.9500  -49.7010   14.1720 O.2   185  GLN185     -0.2715
    195  CB       -39.4720  -46.8920   16.1620 C.3   185  GLN185      0.0408
    196  CG       -39.0430  -45.4400   16.1820 C.3   185  GLN185      0.0908
    197  CD       -40.1730  -44.5220   16.5720 C.2   185  GLN185      0.2608
    198  OE1      -40.6810  -44.5880   17.6900 O.2   185  GLN185     -0.2717
    199  NE2      -40.5820  -43.6630   15.6510 N.am  185  GLN185     -0.0878
    200  N        -41.0700  -49.1850   16.0500 N.am  186  VAL186     -0.1977
    201  CA       -41.4520  -50.5580   16.3430 C.3   186  VAL186      0.1596
    202  C        -42.9540  -50.7460   16.3950 C.2   186  VAL186      0.2287
    203  O        -43.6860  -49.9740   17.0020 O.2   186  VAL186     -0.2864
    204  CB       -40.8540  -51.0300   17.6730 C.3   186  VAL186      0.0276
    205  CG1      -41.5030  -52.3220   18.1010 C.3   186  VAL186      0.0022
    206  CG2      -39.3750  -51.2340   17.5190 C.3   186  VAL186      0.0022
    207  N        -46.4230  -52.2180   17.5100 N.3   188  ASN188     -0.1240
    208  CA       -46.9650  -52.6580   18.7860 C.3   188  ASN188      0.1653
    209  C        -48.4880  -52.6810   18.6730 C.2   188  ASN188      0.2266
    210  O        -49.0520  -52.1250   17.7350 O.2   188  ASN188     -0.2867
    211  CB       -46.4990  -51.7540   19.9370 C.3   188  ASN188      0.1155
    212  CG       -47.0400  -50.3530   19.8470 C.2   188  ASN188      0.2627
    213  OD1      -48.2530  -50.1340   19.8690 O.2   188  ASN188     -0.2716
    214  ND2      -46.1380  -49.3850   19.7600 N.am  188  ASN188     -0.0877
    215  N        -51.0720  -51.0880   19.9140 N.3   190  HIS190     -0.1226
    216  CA       -51.7520  -49.8240   19.6580 C.3   190  HIS190      0.1752
    217  C        -51.3990  -49.2770   18.2760 C.2   190  HIS190      0.2596
    218  O        -52.2790  -48.9550   17.4760 O.2   190  HIS190     -0.2718
    219  CB       -51.3930  -48.7950   20.7450 C.3   190  HIS190      0.0759
    220  CG       -52.3360  -47.6300   20.8150 C.ar  190  HIS190      0.0818
    221  ND1      -53.6990  -47.7810   20.9680 N.ar  190  HIS190     -0.2268
    222  CD2      -52.1160  -46.2940   20.7430 C.ar  190  HIS190      0.1154
    223  CE1      -54.2770  -46.5920   20.9840 C.ar  190  HIS190      0.1986
    224  NE2      -53.3380  -45.6720   20.8500 N.ar  190  HIS190     -0.2212
    225  N        -50.1050  -49.1940   17.9960 N.am  191  THR191     -0.1953
    226  CA       -49.6240  -48.6710   16.7250 C.3   191  THR191      0.1897
    227  C        -50.1750  -49.4690   15.5340 C.2   191  THR191      0.2313
    228  O        -50.5760  -48.8910   14.5290 O.2   191  THR191     -0.2863
    229  CB       -48.0640  -48.6340   16.7240 C.3   191  THR191      0.1794
    230  OG1      -47.6070  -47.5530   15.9090 O.3   191  THR191     -0.2208
    231  CG2      -47.4840  -49.9250   16.1990 C.3   191  THR191      0.0378
    232  N        -53.7460  -49.0600   14.2900 N.3   194  LEU194     -0.1245
    233  CA       -53.9940  -47.8180   13.5800 C.3   194  LEU194      0.1561
    234  C        -53.6760  -47.8980   12.0890 C.2   194  LEU194      0.2260
    235  O        -54.1080  -47.0480   11.3050 O.2   194  LEU194     -0.2867
    236  CB       -53.1970  -46.6930   14.2330 C.3   194  LEU194      0.0270
    237  CG       -53.7290  -46.2660   15.6000 C.3   194  LEU194      0.0019
    238  CD1      -52.7830  -45.2670   16.2380 C.3   194  LEU194      0.0001
    239  CD2      -55.1250  -45.6720   15.4320 C.3   194  LEU194      0.0001
@<TRIPOS>BOND
     1    58    59    2
     2    58    57    1
     3   177   178    1
     4    57    56    1
     5    57    60    1
     6   178   179    1
     7   178   181    1
     8   182   181    1
     9   182   184    1
    10   180   179    2
    11    62    61    1
    12    61    60    1
    13    61    63    1
    14   181   183    1
    15     4     3    2
    16   235   234    2
    17     3     2    1
    18   234   233    1
    19   172   171    2
    20   185   186    1
    21     2     5    1
    22     2     1    1
    23   190   189    1
    24   233   236    1
    25   233   232    1
    26     5     6    1
    27   171   170    1
    28   175   174    1
    29   194   193    2
    30   189   186    1
    31   236   237    1
    32   191   192    1
    33   191   187   am
    34   186   187    1
    35   174   176    1
    36   174   173    1
    37   228   227    2
    38   192   193    1
    39   192   195    1
    40     7     6   ar
    41     7     9   ar
    42   142   143    1
    43     6     8   ar
    44   193   200   am
    45   187   188    2
    46   170   173    1
    47   170   169    1
    48   239   237    1
    49   227   226    1
    50   237   238    1
    51   199   197   am
    52   230   229    1
    53     9    11   ar
    54   200   201    1
    55    22    20   ar
    56    22    23   ar
    57   143   144    1
    58    20    18   ar
    59   195   196    1
    60   196   197    1
    61   231   229    1
    62     8    10   ar
    63   201   202    1
    64   201   204    1
    65   202   203    2
    66   128   129    1
    67   128   127    1
    68   197   198    2
    69    13    14    1
    70   229   226    1
    71   226   225    1
    72    23    21   ar
    73    11    10   ar
    74    11    12    1
    75   145   144    2
    76   144   146   am
    77    18    17    1
    78    18    19   ar
    79    17    14    1
    80   218   217    2
    81   207   208    1
    82   206   204    1
    83   204   205    1
    84   210   209    2
    85    14    15    1
    86   225   217   am
    87   127   126    1
    88   168   167    1
    89   217   216    1
    90   154   152   ar
    91   146   147    1
    92    21    19   ar
    93   209   208    1
    94   208   211    1
    95   132   133    2
    96   132   131    1
    97    15    16    2
    98    15    24   am
    99   126   123    1
   100   167   166    1
   101   152   151    1
   102   152   153   ar
   103   151   150    1
   104   131   130    1
   105   131   134    1
   106   147   150    1
   107   147   148    1
   108   216   215    1
   109   216   219    1
   110   214   212   am
   111   212   213    2
   112   212   211    1
   113   130   124   am
   114   125   124    2
   115   124   123    1
   116    30    24    1
   117    30    29    1
   118    24    25    1
   119   123   122    1
   120   148   155   am
   121   148   149    2
   122   119   117   ar
   123   119   120   ar
   124   222   220   ar
   125   222   224   ar
   126   219   220    1
   127   121   120    1
   128   166   165    1
   129   155   156    1
   130   220   221   ar
   131   134   135    1
   132   224   223   ar
   133   221   223   ar
   134   165   162    1
   135   117   115   ar
   136   120   118   ar
   137    43    41   ar
   138    43    44   ar
   139   158   157    2
   140    25    26    1
   141    25    28    1
   142   137   135   ar
   143   137   139   ar
   144    29    28    1
   145    41    38   ar
   146   156   157    1
   147   156   159    1
   148   135   136   ar
   149   157   161   am
   150    27    26    2
   151   161   162    1
   152    44    42   ar
   153    26    31   am
   154   139   140   ar
   155   162   163    1
   156   113   112    2
   157   136   138   ar
   158   115   114    1
   159   115   116   ar
   160    35    36    1
   161    35    32    1
   162    38    36   ar
   163    38    40   ar
   164   118   116   ar
   165    31    32    1
   166   159   160    1
   167    36    37   ar
   168    42    40   ar
   169   140   138   ar
   170   140   141    1
   171   114   111    1
   172   111   112    1
   173   111   110    1
   174    40    39   ar
   175    32    33    1
   176   163   164    2
   177    37    39   ar
   178    34    33    2
   179    33    45   am
   180    45    46    1
   181   108   107    1
   182   106   105    2
   183    93    91   ar
   184    93    94   ar
   185    52    54   ar
   186    52    50   ar
   187    54    55   ar
   188   102   100    1
   189    91    88   ar
   190    46    49    1
   191    46    47    1
   192    94    92   ar
   193    49    50    1
   194   105   104    1
   195   100    99    1
   196   107   104    1
   197   107   109    1
   198   104   103    1
   199    50    51   ar
   200    55    53   ar
   201    88    86   ar
   202    88    90   ar
   203   101    99    1
   204    47    48    2
   205    85    86    1
   206    85    82    1
   207    71    69   ar
   208    92    90   ar
   209    99    96    1
   210    75    74    2
   211    84    83    2
   212    74    73    1
   213    51    53   ar
   214    86    87   ar
   215    90    89   ar
   216    96    95    1
   217    96    97    1
   218    83    95   am
   219    83    82    1
   220    69    68    1
   221    69    70   ar
   222    76    73    1
   223    76    77    1
   224    82    81    1
   225    68    65    1
   226    73    72    1
   227    87    89   ar
   228    80    78   ar
   229    97    98    2
   230    78    77    1
   231    78    79   ar
   232    65    64    1
   233    65    66    1
   234    66    67    2
