@<TRIPOS>MOLECULE
tmp/2z3pA00.pdb
 104 95 0 0 0
SMALL
GASTEIGER

@<TRIPOS>ATOM
      1  N        -20.7870    8.1770   -0.2350 N.3    66  LEU66      -0.1245
      2  CA       -19.8250    9.2480    0.0270 C.3    66  LEU66       0.1561
      3  C        -20.1980   10.1340    1.2120 C.2    66  LEU66       0.2260
      4  O        -21.1680   10.8960    1.1570 O.2    66  LEU66      -0.2867
      5  CB       -19.6570   10.1310   -1.2180 C.3    66  LEU66       0.0270
      6  CG       -18.8450   11.4270   -1.0580 C.3    66  LEU66       0.0019
      7  CD1      -17.4500   11.1030   -0.5410 C.3    66  LEU66       0.0001
      8  CD2      -18.7600   12.1640   -2.4110 C.3    66  LEU66       0.0001
      9  N        -23.6540   17.8790  -12.0820 N.3   143  MET143     -0.1245
     10  CA       -24.1340   16.5880  -11.6260 C.3   143  MET143      0.1570
     11  C        -25.6150   16.7470  -11.2730 C.2   143  MET143      0.2261
     12  O        -26.0930   17.8560  -11.0140 O.2   143  MET143     -0.2867
     13  CB       -23.3590   16.1290  -10.3860 C.3   143  MET143      0.0387
     14  CG       -23.7910   16.8000   -9.0940 C.3   143  MET143      0.0595
     15  SD       -23.4800   15.7890   -7.5980 S.3   143  MET143     -0.1393
     16  CE       -22.6020   16.9590   -6.5890 C.3   143  MET143      0.0692
     17  N        -26.6930   10.6950   -5.8310 N.3   154  GLY154     -0.1210
     18  CA       -26.0510   11.3080   -6.9690 C.3   154  GLY154      0.1956
     19  C        -26.1950   10.3550   -8.1250 C.2   154  GLY154      0.2612
     20  O        -25.6690    9.2540   -8.0790 O.2   154  GLY154     -0.2717
     21  N        -26.9090   10.7760   -9.1600 N.am  155  GLU155     -0.1965
     22  CA       -27.1300    9.9370  -10.3300 C.3   155  GLU155      0.1733
     23  C        -25.9270    9.8880  -11.2430 C.2   155  GLU155      0.2617
     24  O        -25.4860    8.8170  -11.6420 O.2   155  GLU155     -0.2715
     25  CB       -28.3440   10.4460  -11.1040 C.3   155  GLU155      0.0429
     26  CG       -29.6510   10.0420  -10.4760 C.3   155  GLU155      0.1163
     27  CD       -29.9300    8.5690  -10.6820 C.2   155  GLU155      0.3649
     28  OE1      -30.1760    8.1860  -11.8540 O.co2 155  GLU155     -0.2457
     29  OE2      -29.8900    7.7990   -9.6870 O.co2 155  GLU155     -0.2457
     30  N        -25.3930   11.0530  -11.5750 N.am  156  SER156     -0.1936
     31  CA       -24.2430   11.1180  -12.4610 C.3   156  SER156      0.2055
     32  C        -23.6270   12.5140  -12.4930 C.2   156  SER156      0.2642
     33  O        -24.1660   13.4510  -11.9170 O.2   156  SER156     -0.2714
     34  CB       -24.6710   10.7100  -13.8710 C.3   156  SER156      0.2130
     35  OG       -23.5420   10.5470  -14.7040 O.3   156  SER156     -0.2179
     36  N        -22.4760   12.6400  -13.1440 N.am  157  MET157     -0.1976
     37  CA       -21.8210   13.9330  -13.2780 C.3   157  MET157      0.1605
     38  C        -21.0040   13.9390  -14.5590 C.2   157  MET157      0.2287
     39  O        -20.7700   12.8870  -15.1490 O.2   157  MET157     -0.2864
     40  CB       -20.9630   14.2620  -12.0470 C.3   157  MET157      0.0413
     41  CG       -19.8200   13.3360  -11.7470 C.3   157  MET157      0.0598
     42  SD       -19.0280   13.8600  -10.1970 S.3   157  MET157     -0.1393
     43  CE       -18.4150   12.3090   -9.5860 C.3   157  MET157      0.0692
     44  N        -18.8710   18.9240   -7.1590 N.3   169  LEU169     -0.1245
     45  CA       -19.0510   18.1200   -5.9710 C.3   169  LEU169      0.1561
     46  C        -18.4640   18.7940   -4.7170 C.2   169  LEU169      0.2260
     47  O        -19.0260   18.6850   -3.6280 O.2   169  LEU169     -0.2867
     48  CB       -18.4190   16.7440   -6.1880 C.3   169  LEU169      0.0270
     49  CG       -18.6830   15.6940   -5.1020 C.3   169  LEU169      0.0019
     50  CD1      -20.1760   15.4700   -4.9290 C.3   169  LEU169      0.0001
     51  CD2      -17.9740   14.3940   -5.4900 C.3   169  LEU169      0.0001
     52  N        -24.2320   10.9420    0.7040 N.3   184  ILE184     -0.1245
     53  CA       -24.3780   10.9710   -0.7450 C.3   184  ILE184      0.1561
     54  C        -24.3260    9.5350   -1.2160 C.2   184  ILE184      0.2260
     55  O        -23.3770    8.8320   -0.9110 O.2   184  ILE184     -0.2867
     56  CB       -23.2160   11.6850   -1.4790 C.3   184  ILE184      0.0252
     57  CG1      -23.2200   13.1770   -1.1740 C.3   184  ILE184      0.0019
     58  CG2      -23.3500   11.4450   -2.9820 C.3   184  ILE184      0.0019
     59  CD1      -24.5520   13.7800   -1.4220 C.3   184  ILE184      0.0001
     60  N        -23.7480    6.8400   -4.1010 N.3   186  CYS186     -0.1221
     61  CA       -23.0380    6.7860   -5.3810 C.3   186  CYS186      0.1808
     62  C        -23.3280    5.5250   -6.1730 C.2   186  CYS186      0.2601
     63  O        -22.7790    5.3490   -7.2620 O.2   186  CYS186     -0.2717
     64  CB       -21.5260    6.8820   -5.1790 C.3   186  CYS186      0.0970
     65  SG       -20.9710    8.3370   -4.2800 S.3   186  CYS186     -0.0800
     66  N        -24.1800    4.6550   -5.6280 N.am  187  GLN187     -0.1965
     67  CA       -24.5720    3.3810   -6.2570 C.3   187  GLN187      0.1733
     68  C        -23.4360    2.3760   -6.3950 C.2   187  GLN187      0.2616
     69  O        -23.2980    1.4670   -5.5760 O.2   187  GLN187     -0.2715
     70  CB       -25.1740    3.5970   -7.6460 C.3   187  GLN187      0.0408
     71  CG       -26.3230    4.5750   -7.7270 C.3   187  GLN187      0.0908
     72  CD       -25.9650    5.8010   -8.5490 C.2   187  GLN187      0.2608
     73  OE1      -25.6680    6.8470   -7.9910 O.2   187  GLN187     -0.2717
     74  NE2      -25.9770    5.6690   -9.8870 N.am  187  GLN187     -0.0878
     75  N        -22.6350    2.5210   -7.4440 N.am  188  VAL188     -0.1977
     76  CA       -21.5250    1.6070   -7.6650 C.3   188  VAL188      0.1596
     77  C        -20.2010    2.3520   -7.7830 C.2   188  VAL188      0.2287
     78  O        -20.0340    3.2300   -8.6270 O.2   188  VAL188     -0.2864
     79  CB       -21.7480    0.7680   -8.9370 C.3   188  VAL188      0.0276
     80  CG1      -20.5470   -0.1490   -9.1750 C.3   188  VAL188      0.0022
     81  CG2      -23.0430   -0.0440   -8.8040 C.3   188  VAL188      0.0022
     82  N        -16.4190    3.5290   -8.5610 N.3   190  ASN190     -0.1240
     83  CA       -15.6140    3.5520   -9.7840 C.3   190  ASN190      0.1653
     84  C        -14.3920    4.4330   -9.5240 C.2   190  ASN190      0.2266
     85  O        -14.4980    5.4620   -8.8610 O.2   190  ASN190     -0.2867
     86  CB       -16.4200    4.0840  -10.9760 C.3   190  ASN190      0.1155
     87  CG       -16.7740    5.5520  -10.8450 C.2   190  ASN190      0.2627
     88  OD1      -15.8910    6.4130  -10.7590 O.2   190  ASN190     -0.2716
     89  ND2      -18.0760    5.8510  -10.8400 N.am  190  ASN190     -0.0877
     90  N        -14.8290    8.1030   -8.5240 N.3   193  THR193     -0.1218
     91  CA       -15.5920    8.3060   -7.3010 C.3   193  THR193      0.1862
     92  C        -14.7750    7.8320   -6.0910 C.2   193  THR193      0.2287
     93  O        -14.8420    8.4170   -5.0080 O.2   193  THR193     -0.2866
     94  CB       -16.9810    7.5770   -7.3840 C.3   193  THR193      0.1770
     95  OG1      -17.8490    8.0810   -6.3630 O.3   193  THR193     -0.2211
     96  CG2      -16.8350    6.0700   -7.2110 C.3   193  THR193      0.0375
     97  N        -12.2770   10.3330   -4.9670 N.3   196  LEU196     -0.1245
     98  CA       -12.9370   11.4560   -4.3120 C.3   196  LEU196      0.1561
     99  C        -13.3110   11.1480   -2.8730 C.2   196  LEU196      0.2260
    100  O        -13.8550   12.0030   -2.1630 O.2   196  LEU196     -0.2867
    101  CB       -14.1780   11.8880   -5.1050 C.3   196  LEU196      0.0270
    102  CG       -13.8680   12.6870   -6.3810 C.3   196  LEU196      0.0019
    103  CD1      -15.1450   12.9700   -7.1540 C.3   196  LEU196      0.0001
    104  CD2      -13.1650   13.9950   -6.0050 C.3   196  LEU196      0.0001
@<TRIPOS>BOND
     1    39    38    2
     2    35    34    1
     3    38    37    1
     4    34    31    1
     5    37    36    1
     6    37    40    1
     7    36    32   am
     8    32    31    1
     9    32    33    2
    10    31    30    1
    11     9    10    1
    12    40    41    1
    13    28    27   ar
    14    41    42    1
    15    24    23    2
    16    10    11    1
    17    10    13    1
    18    30    23   am
    19    11    12    2
    20    23    22    1
    21    25    26    1
    22    25    22    1
    23    86    87    1
    24    86    83    1
    25    87    89   am
    26    87    88    2
    27    27    26    1
    28    27    29   ar
    29    13    14    1
    30    22    21    1
    31    42    43    1
    32    74    72   am
    33    83    84    1
    34    83    82    1
    35    84    85    2
    36    80    79    1
    37    21    19   am
    38    14    15    1
    39    79    81    1
    40    79    76    1
    41    78    77    2
    42    72    73    2
    43    72    71    1
    44    90    91    1
    45    19    20    2
    46    19    18    1
    47    77    76    1
    48    71    70    1
    49    76    75    1
    50    70    67    1
    51    15    16    1
    52    75    68   am
    53    94    91    1
    54    94    96    1
    55    94    95    1
    56    91    92    1
    57    63    62    2
    58    44    45    1
    59   103   102    1
    60    18    17    1
    61    68    67    1
    62    68    69    2
    63   102   104    1
    64   102   101    1
    65    67    66    1
    66    48    45    1
    67    48    49    1
    68    62    66   am
    69    62    61    1
    70    92    93    2
    71    45    46    1
    72    51    49    1
    73    61    64    1
    74    61    60    1
    75    64    65    1
    76   101    98    1
    77    49    50    1
    78    97    98    1
    79    46    47    2
    80    98    99    1
    81    58    56    1
    82    99   100    2
    83     8     6    1
    84    56    57    1
    85    56    53    1
    86    59    57    1
    87     5     6    1
    88     5     2    1
    89    54    55    2
    90    54    53    1
    91     6     7    1
    92    53    52    1
    93     1     2    1
    94     2     3    1
    95     4     3    2
