@<TRIPOS>MOLECULE
tmp/2z3uA02.pdb
 140 134 0 0 0
SMALL
GASTEIGER

@<TRIPOS>ATOM
      1  N         -4.1170   10.5330  -31.3240 N.3     9  MET9       -0.1245
      2  CA        -2.8750   10.0720  -31.9600 C.3     9  MET9        0.1570
      3  C         -1.6680   10.9910  -32.1370 C.2     9  MET9        0.2261
      4  O         -1.7940   12.1980  -32.3220 O.2     9  MET9       -0.2867
      5  CB        -3.1850    9.4790  -33.3310 C.3     9  MET9        0.0387
      6  CG        -2.9040    8.0060  -33.3970 C.3     9  MET9        0.0595
      7  SD        -4.3780    7.0840  -33.8120 S.3     9  MET9       -0.1393
      8  CE        -3.7200    5.4180  -33.7330 C.3     9  MET9        0.0692
      9  N        -12.5750   11.3740  -40.9050 N.3    37  SER37      -0.1217
     10  CA       -11.5090   10.5180  -41.3830 C.3    37  SER37       0.1889
     11  C        -11.6730   10.7840  -42.8830 C.2    37  SER37       0.2288
     12  O        -12.5110   11.6060  -43.2630 O.2    37  SER37      -0.2866
     13  CB       -11.7430    9.0530  -40.9840 C.3    37  SER37       0.2089
     14  OG       -10.9860    8.7360  -39.8200 O.3    37  SER37      -0.2183
     15  N        -13.4920    5.4870  -46.4770 N.3    40  GLY40      -0.1210
     16  CA       -14.7040    4.8190  -46.2770 C.3    40  GLY40       0.1956
     17  C        -14.5380    4.5660  -44.8120 C.2    40  GLY40       0.2612
     18  O        -14.9680    3.5810  -44.1670 O.2    40  GLY40      -0.2717
     19  N        -13.6880    5.4260  -44.2840 N.am   41  LYS41      -0.1966
     20  CA       -13.4490    5.4160  -42.8310 C.3    41  LYS41       0.1713
     21  C        -14.5180    6.3000  -42.2230 C.2    41  LYS41       0.2458
     22  O        -14.7910    7.4270  -42.7010 O.2    41  LYS41      -0.2730
     23  CB       -12.0620    5.9220  -42.3930 C.3    41  LYS41       0.0311
     24  CG       -11.3250    4.7740  -41.6340 C.3    41  LYS41       0.0038
     25  CD        -9.8480    4.9790  -41.1930 C.3    41  LYS41       0.0206
     26  CE        -9.6820    5.7280  -39.8770 C.3    41  LYS41       0.1093
     27  NZ        -8.3250    5.4060  -39.3470 N.3    41  LYS41      -0.1314
     28  N        -15.1580    5.7960  -41.1670 N.am   42  PRO42      -0.2727
     29  CA       -16.2190    6.5550  -40.5090 C.3    42  PRO42       0.1402
     30  C        -15.7450    7.7180  -39.6230 C.2    42  PRO42       0.2269
     31  O        -14.6140    7.7210  -39.1190 O.2    42  PRO42      -0.2865
     32  CB       -16.9350    5.4810  -39.6980 C.3    42  PRO42       0.0296
     33  CG       -15.8310    4.5900  -39.2810 C.3    42  PRO42       0.0237
     34  CD       -15.0100    4.4510  -40.5700 C.3    42  PRO42       0.0939
     35  N        -15.5290   10.1570  -36.2800 N.3    44  THR44      -0.1218
     36  CA       -15.4370    9.8570  -34.8580 C.3    44  THR44       0.1862
     37  C        -15.8650   11.0950  -34.0730 C.2    44  THR44       0.2287
     38  O        -15.4780   12.2160  -34.4080 O.2    44  THR44      -0.2866
     39  CB       -13.9940    9.4730  -34.4350 C.3    44  THR44       0.1770
     40  OG1      -13.5520    8.3270  -35.1770 O.3    44  THR44      -0.2211
     41  CG2      -13.9530    9.1450  -32.9520 C.3    44  THR44       0.0375
     42  N        -20.6110   -2.0870  -29.3520 N.3    64  ARG64      -0.1245
     43  CA       -19.1630   -2.2810  -29.4590 C.3    64  ARG64       0.1563
     44  C        -18.6760   -2.7190  -30.8410 C.2    64  ARG64       0.2260
     45  O        -17.4810   -2.6390  -31.1240 O.2    64  ARG64      -0.2867
     46  CB       -18.6840   -3.3410  -28.4490 C.3    64  ARG64       0.0307
     47  CG       -19.1760   -3.1900  -27.0150 C.3    64  ARG64       0.0489
     48  CD       -18.9800   -1.7710  -26.5080 C.3    64  ARG64       0.2205
     49  NE       -17.6120   -1.2880  -26.6890 N.pl3  64  ARG64      -0.0865
     50  CZ       -16.7490   -1.0630  -25.7000 C.cat  64  ARG64       0.5346
     51  NH1      -17.1030   -1.2810  -24.4400 N.pl3  64  ARG64       0.1354
     52  NH2      -15.5340   -0.6030  -25.9700 N.pl3  64  ARG64       0.1354
     53  N        -18.3770   -2.3180  -34.8150 N.3    66  ALA66      -0.1245
     54  CA       -18.4440   -1.4230  -35.9670 C.3    66  ALA66       0.1562
     55  C        -19.1250   -2.0480  -37.1910 C.2    66  ALA66       0.2260
     56  O        -19.6120   -1.3350  -38.0600 O.2    66  ALA66      -0.2867
     57  CB       -17.0350   -0.9570  -36.3430 C.3    66  ALA66       0.0290
     58  N        -16.6630   -4.4260  -43.1500 N.3    75  THR75      -0.1203
     59  CA       -16.0550   -3.7550  -42.0050 C.3    75  THR75       0.1994
     60  C        -15.7750   -4.7220  -40.8430 C.2    75  THR75       0.2618
     61  O        -16.6110   -5.5550  -40.4980 O.2    75  THR75      -0.2717
     62  CB       -16.9140   -2.5490  -41.5020 C.3    75  THR75       0.1784
     63  OG1      -17.2620   -2.7370  -40.1280 O.3    75  THR75      -0.2211
     64  CG2      -18.1610   -2.3840  -42.3320 C.3    75  THR75       0.0376
     65  N        -14.5820   -4.5940  -40.2570 N.am   76  ALA76      -0.1966
     66  CA       -14.1260   -5.4360  -39.1450 C.3    76  ALA76       0.1713
     67  C        -14.9140   -5.2060  -37.8620 C.2    76  ALA76       0.2458
     68  O        -15.1640   -4.0710  -37.4910 O.2    76  ALA76      -0.2730
     69  CB       -12.6370   -5.1790  -38.8820 C.3    76  ALA76       0.0333
     70  N        -15.3160   -6.2880  -37.1690 N.am   77  PRO77      -0.2716
     71  CA       -16.0770   -6.1660  -35.9230 C.3    77  PRO77       0.1536
     72  C        -15.2860   -5.4120  -34.8610 C.2    77  PRO77       0.2598
     73  O        -15.8540   -4.6510  -34.0870 O.2    77  PRO77      -0.2715
     74  CB       -16.3720   -7.6220  -35.5480 C.3    77  PRO77       0.0310
     75  CG       -15.2410   -8.3630  -36.1480 C.3    77  PRO77       0.0237
     76  CD       -15.0760   -7.7020  -37.4940 C.3    77  PRO77       0.0939
     77  N        -13.9740   -5.6210  -34.8330 N.am   78  VAL78      -0.1964
     78  CA       -13.1000   -4.9270  -33.8890 C.3    78  VAL78       0.1712
     79  C        -11.9630   -4.2650  -34.6850 C.2    78  VAL78       0.2458
     80  O        -11.6710   -4.6640  -35.8140 O.2    78  VAL78      -0.2730
     81  CB       -12.5060   -5.8950  -32.8320 C.3    78  VAL78       0.0289
     82  CG1      -13.6170   -6.4640  -31.9590 C.3    78  VAL78       0.0023
     83  CG2      -11.7340   -7.0290  -33.5190 C.3    78  VAL78       0.0023
     84  N        -11.3290   -3.2290  -34.1180 N.am   79  PRO79      -0.2727
     85  CA       -10.2270   -2.4850  -34.7410 C.3    79  PRO79       0.1402
     86  C         -8.8670   -3.1800  -34.9340 C.2    79  PRO79       0.2269
     87  O         -7.8330   -2.6490  -34.5430 O.2    79  PRO79      -0.2865
     88  CB       -10.1110   -1.2460  -33.8550 C.3    79  PRO79       0.0296
     89  CG       -10.6080   -1.7420  -32.5220 C.3    79  PRO79       0.0237
     90  CD       -11.8220   -2.5120  -32.9320 C.3    79  PRO79       0.0939
     91  N        -15.8920   -6.0740  -25.7550 N.3    97  PHE97      -0.1241
     92  CA       -16.3320   -5.7820  -27.1210 C.3    97  PHE97       0.1605
     93  C        -17.5310   -6.5990  -27.6030 C.2    97  PHE97       0.2264
     94  O        -17.8060   -6.6650  -28.7960 O.2    97  PHE97      -0.2867
     95  CB       -15.1650   -5.9580  -28.1040 C.3    97  PHE97       0.0534
     96  CG       -14.0180   -5.0040  -27.8620 C.ar   97  PHE97      -0.0203
     97  CD1      -14.2590   -3.6520  -27.6210 C.ar   97  PHE97      -0.0042
     98  CD2      -12.7040   -5.4510  -27.9030 C.ar   97  PHE97      -0.0042
     99  CE1      -13.2110   -2.7630  -27.4290 C.ar   97  PHE97      -0.0003
    100  CE2      -11.6480   -4.5710  -27.7120 C.ar   97  PHE97      -0.0003
    101  CZ       -11.9020   -3.2200  -27.4740 C.ar   97  PHE97      -0.0000
    102  N         -5.8030    0.7070  -30.2450 N.3   184  THR184     -0.1218
    103  CA        -6.1070    1.7070  -31.2580 C.3   184  THR184      0.1862
    104  C         -5.4350    3.0720  -31.2030 C.2   184  THR184      0.2287
    105  O         -5.5130    3.8180  -32.1660 O.2   184  THR184     -0.2866
    106  CB        -7.6310    1.9630  -31.3600 C.3   184  THR184      0.1770
    107  OG1       -8.0880    2.6110  -30.1690 O.3   184  THR184     -0.2211
    108  CG2       -8.3890    0.6600  -31.5580 C.3   184  THR184      0.0375
    109  N        -14.3160    3.4310  -26.5230 N.3   302  THR302     -0.1218
    110  CA       -15.1220    3.6930  -27.6970 C.3   302  THR302      0.1862
    111  C        -16.4430    2.9450  -27.7520 C.2   302  THR302      0.2287
    112  O        -16.6470    1.9360  -27.0750 O.2   302  THR302     -0.2866
    113  CB       -14.3330    3.3830  -28.9800 C.3   302  THR302      0.1770
    114  OG1      -14.0930    1.9780  -29.0590 O.3   302  THR302     -0.2211
    115  CG2      -12.9990    4.1020  -28.9690 C.3   302  THR302      0.0375
    116  N        -19.9780    2.5060  -30.7680 N.3   304  TRP304     -0.1241
    117  CA       -20.4050    2.7080  -32.1390 C.3   304  TRP304      0.1605
    118  C        -21.9020    2.9680  -32.1450 C.2   304  TRP304      0.2264
    119  O        -22.6570    2.3300  -31.4070 O.2   304  TRP304     -0.2867
    120  CB       -20.0770    1.4770  -32.9960 C.3   304  TRP304      0.0550
    121  CG       -18.6100    1.3050  -33.2170 C.ar  304  TRP304      0.0003
    122  CD1      -17.7280    0.6410  -32.4130 C.ar  304  TRP304      0.0946
    123  CD2      -17.8400    1.8750  -34.2780 C.ar  304  TRP304      0.0152
    124  NE1      -16.4520    0.7650  -32.9110 N.ar  304  TRP304     -0.2442
    125  CE2      -16.4920    1.5190  -34.0540 C.ar  304  TRP304      0.0810
    126  CE3      -18.1580    2.6560  -35.3980 C.ar  304  TRP304      0.0012
    127  CZ2      -15.4580    1.9180  -34.9090 C.ar  304  TRP304      0.0191
    128  CZ3      -17.1360    3.0510  -36.2490 C.ar  304  TRP304      0.0001
    129  CH2      -15.7970    2.6810  -35.9990 C.ar  304  TRP304      0.0015
    130  N        -18.2250    6.3060  -35.0110 N.3   321  ARG321     -0.1245
    131  CA       -17.5210    5.8770  -33.8190 C.3   321  ARG321      0.1563
    132  C        -17.7150    6.9840  -32.7790 C.2   321  ARG321      0.2260
    133  O        -17.8090    8.1640  -33.1290 O.2   321  ARG321     -0.2867
    134  CB       -16.0300    5.6750  -34.1120 C.3   321  ARG321      0.0307
    135  CG       -15.2830    5.0370  -32.9480 C.3   321  ARG321      0.0489
    136  CD       -13.9010    4.5800  -33.3300 C.3   321  ARG321      0.2205
    137  NE       -12.9820    5.6900  -33.4910 N.pl3 321  ARG321     -0.0865
    138  CZ       -11.8050    5.7640  -32.8810 C.cat 321  ARG321      0.5346
    139  NH1      -11.4160    4.7810  -32.0700 N.pl3 321  ARG321      0.1354
    140  NH2      -11.0230    6.8160  -33.0780 N.pl3 321  ARG321      0.1354
@<TRIPOS>BOND
     1    15    16    1
     2    16    17    1
     3    17    19   am
     4    17    18    2
     5    19    20    1
     6    12    11    2
     7    58    59    1
     8    11    10    1
     9    20    23    1
    10    20    21    1
    11    22    21    2
    12    23    24    1
    13    64    62    1
    14    21    28   am
    15    59    62    1
    16    59    60    1
    17    24    25    1
    18    62    63    1
    19    10    13    1
    20    10     9    1
    21    25    26    1
    22    28    34    1
    23    28    29    1
    24    13    14    1
    25    60    61    2
    26    60    65   am
    27    34    33    1
    28    29    32    1
    29    29    30    1
    30    65    66    1
    31    26    27    1
    32    32    33    1
    33    30    31    2
    34    66    69    1
    35    66    67    1
    36    56    55    2
    37    67    68    2
    38    67    70   am
    39    76    70    1
    40    76    75    1
    41    55    54    1
    42    70    71    1
    43    57    54    1
    44    35    36    1
    45   128   129   ar
    46   128   126   ar
    47    75    74    1
    48   129   127   ar
    49    54    53    1
    50    71    74    1
    51    71    72    1
    52    80    79    2
    53   126   123   ar
    54    40    39    1
    55   130   131    1
    56    86    85    1
    57    86    87    2
    58   127   125   ar
    59    72    77   am
    60    72    73    2
    61    36    39    1
    62    36    37    1
    63    77    78    1
    64    85    84    1
    65    85    88    1
    66    79    84   am
    67    79    78    1
    68    39    41    1
    69    38    37    2
    70   123   125   ar
    71   123   121   ar
    72    84    90    1
    73   134   131    1
    74   134   135    1
    75   125   124   ar
    76    78    81    1
    77    88    89    1
    78   131   132    1
    79     7     8    1
    80     7     6    1
    81    83    81    1
    82   137   136    1
    83   137   138    2
    84     6     5    1
    85     5     2    1
    86   136   135    1
    87   121   120    1
    88   121   122   ar
    89   133   132    2
    90   140   138    1
    91   120   117    1
    92    90    89    1
    93   124   122   ar
    94   138   139    1
    95    81    82    1
    96     4     3    2
    97   105   104    2
    98   118   117    1
    99   118   119    2
   100   117   116    1
   101     3     2    1
   102     2     1    1
   103   108   106    1
   104   106   103    1
   105   106   107    1
   106   103   104    1
   107   103   102    1
   108    45    44    2
   109    44    43    1
   110    43    42    1
   111    43    46    1
   112   114   113    1
   113   113   115    1
   114   113   110    1
   115    94    93    2
   116    46    47    1
   117    95    96    1
   118    95    92    1
   119    98    96   ar
   120    98   100   ar
   121    96    97   ar
   122   111   110    1
   123   111   112    2
   124   100   101   ar
   125   110   109    1
   126    97    99   ar
   127    93    92    1
   128   101    99   ar
   129    92    91    1
   130    47    48    1
   131    49    48    1
   132    49    50    2
   133    52    50    1
   134    50    51    1
