@<TRIPOS>MOLECULE
tmp/2z3uA03.pdb
 97 94 0 0 0
SMALL
GASTEIGER

@<TRIPOS>ATOM
      1  N         19.4060   -1.5980   -6.2040 N.3   141  ARG141     -0.1231
      2  CA        19.7870   -0.1780   -6.2020 C.3   141  ARG141      0.1694
      3  C         18.8800    0.8540   -6.9080 C.2   141  ARG141      0.2591
      4  O         18.6620    1.9310   -6.3650 O.2   141  ARG141     -0.2718
      5  CB        21.2270   -0.0160   -6.7180 C.3   141  ARG141      0.0321
      6  CG        21.5770   -0.8560   -7.9380 C.3   141  ARG141      0.0489
      7  CD        23.0340   -0.6480   -8.2580 C.3   141  ARG141      0.2205
      8  NE        23.2940    0.7590   -8.5580 N.pl3 141  ARG141     -0.0865
      9  CZ        23.1740    1.2790   -9.7740 C.cat 141  ARG141      0.5346
     10  NH1       22.8050    0.4950  -10.7780 N.pl3 141  ARG141      0.1354
     11  NH2       23.4270    2.5610   -9.9850 N.pl3 141  ARG141      0.1354
     12  N         18.3980    0.5740   -8.1130 N.am  142  ARG142     -0.1980
     13  CA        17.4890    1.5180   -8.7640 C.3   142  ARG142      0.1597
     14  C         16.3380    0.7390   -9.3480 C.2   142  ARG142      0.2287
     15  O         16.2210    0.5110  -10.5560 O.2   142  ARG142     -0.2864
     16  CB        18.2020    2.4250   -9.7830 C.3   142  ARG142      0.0334
     17  CG        18.7500    3.6490   -9.0230 C.3   142  ARG142      0.0492
     18  CD        19.3320    4.7870   -9.8360 C.3   142  ARG142      0.2205
     19  NE        20.7440    5.0030   -9.5150 N.pl3 142  ARG142     -0.0865
     20  CZ        21.2570    5.0070   -8.2820 C.cat 142  ARG142      0.5346
     21  NH1       20.4820    4.8080   -7.2200 N.pl3 142  ARG142      0.1354
     22  NH2       22.5600    5.2020   -8.1100 N.pl3 142  ARG142      0.1354
     23  N         15.0710   11.5090   -6.5230 N.3   389  ALA389     -0.1231
     24  CA        14.6730   11.6000   -7.9120 C.3   389  ALA389      0.1694
     25  C         13.9930   10.3420   -8.4230 C.2   389  ALA389      0.2592
     26  O         14.0680    9.2780   -7.8150 O.2   389  ALA389     -0.2718
     27  CB        15.8900   11.9190   -8.7670 C.3   389  ALA389      0.0304
     28  N         13.3190   10.4840   -9.5540 N.am  390  HIS390     -0.1962
     29  CA        12.6430    9.3700  -10.1780 C.3   390  HIS390      0.1787
     30  C         12.7180    9.5900  -11.6740 C.2   390  HIS390      0.2620
     31  O         12.8520   10.7150  -12.1400 O.2   390  HIS390     -0.2715
     32  CB        11.1750    9.3090   -9.7380 C.3   390  HIS390      0.0785
     33  CG        10.3160   10.4030  -10.3050 C.ar  390  HIS390      0.0821
     34  ND1        9.6820   11.3370   -9.5150 N.ar  390  HIS390     -0.2267
     35  CD2        9.9760   10.7010  -11.5820 C.ar  390  HIS390      0.1154
     36  CE1        8.9910   12.1630  -10.2780 C.ar  390  HIS390      0.1986
     37  NE2        9.1520   11.7990  -11.5380 N.ar  390  HIS390     -0.2212
     38  N         12.6630    8.5130  -12.4330 N.am  391  GLU391     -0.1963
     39  CA        12.6590    8.6550  -13.8700 C.3   391  GLU391      0.1733
     40  C         11.5110    7.8200  -14.3770 C.2   391  GLU391      0.2616
     41  O         11.2840    6.6980  -13.9050 O.2   391  GLU391     -0.2715
     42  CB        13.9870    8.2230  -14.4850 C.3   391  GLU391      0.0429
     43  CG        14.8930    9.4130  -14.7730 C.3   391  GLU391      0.1163
     44  CD        14.2980   10.3670  -15.7970 C.2   391  GLU391      0.3649
     45  OE1       13.0800   10.2990  -16.0600 O.co2 391  GLU391     -0.2457
     46  OE2       15.0450   11.1990  -16.3390 O.co2 391  GLU391     -0.2457
     47  N         10.7580    8.3880  -15.3100 N.am  392  VAL392     -0.1963
     48  CA         9.6150    7.6860  -15.8510 C.3   392  VAL392      0.1727
     49  C          9.4870    7.8420  -17.3520 C.2   392  VAL392      0.2616
     50  O          9.9360    8.8270  -17.9330 O.2   392  VAL392     -0.2715
     51  CB         8.3080    8.1840  -15.1860 C.3   392  VAL392      0.0290
     52  CG1        8.1650    9.6860  -15.3830 C.3   392  VAL392      0.0023
     53  CG2        7.1060    7.4530  -15.7790 C.3   392  VAL392      0.0023
     54  N          8.8810    6.8380  -17.9710 N.am  393  GLU393     -0.1977
     55  CA         8.6210    6.8450  -19.3990 C.3   393  GLU393      0.1602
     56  C          7.1740    6.4090  -19.5370 C.2   393  GLU393      0.2287
     57  O          6.8020    5.3390  -19.0600 O.2   393  GLU393     -0.2864
     58  CB         9.5180    5.8500  -20.1350 C.3   393  GLU393      0.0415
     59  CG         9.2330    5.7840  -21.6380 C.3   393  GLU393      0.1163
     60  CD        10.0830    4.7540  -22.3700 C.2   393  GLU393      0.3649
     61  OE1       11.2440    4.5370  -21.9590 O.co2 393  GLU393     -0.2457
     62  OE2        9.5990    4.1730  -23.3670 O.co2 393  GLU393     -0.2457
     63  N          7.6590    2.2510  -17.2530 N.3   405  ARG405     -0.1245
     64  CA         8.5330    1.9880  -16.1290 C.3   405  ARG405      0.1563
     65  C          8.8130    3.2480  -15.3410 C.2   405  ARG405      0.2260
     66  O          8.7300    4.3630  -15.8630 O.2   405  ARG405     -0.2867
     67  CB         9.8260    1.3040  -16.5750 C.3   405  ARG405      0.0307
     68  CG        10.6110    1.9940  -17.6490 C.3   405  ARG405      0.0489
     69  CD        11.7420    1.0740  -18.0710 C.3   405  ARG405      0.2205
     70  NE        12.7800    1.7900  -18.7950 N.pl3 405  ARG405     -0.0865
     71  CZ        14.0690    1.7330  -18.4840 C.cat 405  ARG405      0.5346
     72  NH1       14.4830    0.9960  -17.4610 N.pl3 405  ARG405      0.1354
     73  NH2       14.9450    2.4130  -19.2040 N.pl3 405  ARG405      0.1354
     74  N         11.6730    4.2110  -12.3800 N.3   407  LEU407     -0.1231
     75  CA        12.7740    3.8970  -11.4830 C.3   407  LEU407      0.1693
     76  C         12.8460    4.9350  -10.3800 C.2   407  LEU407      0.2592
     77  O         12.5470    6.1050  -10.5950 O.2   407  LEU407     -0.2718
     78  CB        14.0980    3.8660  -12.2460 C.3   407  LEU407      0.0284
     79  CG        14.3650    2.5500  -12.9850 C.3   407  LEU407      0.0019
     80  CD1       13.2470    2.2750  -13.9940 C.3   407  LEU407      0.0001
     81  CD2       15.7200    2.6110  -13.6670 C.3   407  LEU407      0.0001
     82  N         13.2560    4.5200   -9.1940 N.am  408  LEU408     -0.1966
     83  CA        13.3430    5.4380   -8.0780 C.3   408  LEU408      0.1728
     84  C         14.7890    5.5180   -7.5990 C.2   408  LEU408      0.2616
     85  O         15.5310    4.5520   -7.7220 O.2   408  LEU408     -0.2715
     86  CB        12.4540    4.9250   -6.9540 C.3   408  LEU408      0.0311
     87  CG        11.5040    5.9330   -6.2490 C.3   408  LEU408      0.0022
     88  CD1       10.9900    6.9430   -7.2660 C.3   408  LEU408      0.0001
     89  CD2       10.3770    5.1380   -5.6000 C.3   408  LEU408      0.0001
     90  N         15.2060    6.6620   -7.0690 N.am  409  ASP409     -0.1971
     91  CA        16.5660    6.7610   -6.5790 C.3   409  ASP409      0.1709
     92  C         16.6380    6.9680   -5.0930 C.2   409  ASP409      0.2293
     93  O         17.1210    7.9940   -4.6160 O.2   409  ASP409     -0.2864
     94  CB        17.3480    7.8910   -7.2300 C.3   409  ASP409      0.1436
     95  CG        18.8030    7.8750   -6.8050 C.2   409  ASP409      0.3671
     96  OD1       19.0900    7.3130   -5.7240 O.co2 409  ASP409     -0.2456
     97  OD2       19.6600    8.4130   -7.5310 O.co2 409  ASP409     -0.2456
@<TRIPOS>BOND
     1    62    60   ar
     2    60    61   ar
     3    60    59    1
     4    59    58    1
     5    58    55    1
     6    56    55    1
     7    56    57    2
     8    55    54    1
     9    73    71    1
    10    70    71    2
    11    70    69    1
    12    71    72    1
    13    69    68    1
    14    54    49   am
    15    50    49    2
    16    68    67    1
    17    49    48    1
    18    63    64    1
    19    67    64    1
    20    46    44   ar
    21    64    65    1
    22    45    44   ar
    23    66    65    2
    24    48    47    1
    25    48    51    1
    26    44    43    1
    27    53    51    1
    28    52    51    1
    29    47    40   am
    30    43    42    1
    31    42    39    1
    32    40    41    2
    33    40    39    1
    34    80    79    1
    35    39    38    1
    36    81    79    1
    37    79    78    1
    38    38    30   am
    39    74    75    1
    40    78    75    1
    41    31    30    2
    42    30    29    1
    43    35    37   ar
    44    35    33   ar
    45    37    36   ar
    46    75    76    1
    47    10     9    1
    48    77    76    2
    49    15    14    2
    50    76    82   am
    51    33    32    1
    52    33    34   ar
    53    36    34   ar
    54    29    32    1
    55    29    28    1
    56    11     9    1
    57    18    19    1
    58    18    17    1
    59    16    17    1
    60    16    13    1
    61     9     8    2
    62    28    25   am
    63    19    20    2
    64    14    13    1
    65    82    83    1
    66    27    24    1
    67    13    12    1
    68     8     7    1
    69    25    24    1
    70    25    26    2
    71    20    22    1
    72    20    21    1
    73     7     6    1
    74    12     3   am
    75    83    84    1
    76    83    86    1
    77     6     5    1
    78    24    23    1
    79    85    84    2
    80    84    90   am
    81    97    95   ar
    82    88    87    1
    83    94    95    1
    84    94    91    1
    85    90    91    1
    86    86    87    1
    87     3     4    2
    88     3     2    1
    89    95    96   ar
    90     5     2    1
    91    91    92    1
    92    87    89    1
    93     1     2    1
    94    92    93    2
