@<TRIPOS>MOLECULE
tmp/2z3zA00.pdb
 155 154 0 0 0
SMALL
GASTEIGER

@<TRIPOS>ATOM
      1  N        -12.7040   53.2520   65.6920 N.3   132  GLN132     -0.1231
      2  CA       -12.1580   52.0240   66.2820 C.3   132  GLN132      0.1698
      3  C        -10.6400   51.9080   66.1350 C.2   132  GLN132      0.2592
      4  O        -10.1020   50.7940   66.0360 O.2   132  GLN132     -0.2718
      5  CB       -12.8760   50.8000   65.6820 C.3   132  GLN132      0.0381
      6  CG       -14.3290   50.6470   66.1800 C.3   132  GLN132      0.0905
      7  CD       -14.3380   50.0450   67.5500 C.2   132  GLN132      0.2608
      8  OE1      -14.9560   50.5710   68.4750 O.2   132  GLN132     -0.2717
      9  NE2      -13.6270   48.9400   67.6970 N.am  132  GLN132     -0.0878
     10  N         -9.9440   53.0570   66.1380 N.am  133  ARG133     -0.1966
     11  CA        -8.4770   53.1010   66.0550 C.3   133  ARG133      0.1729
     12  C         -7.9470   52.4950   64.7560 C.2   133  ARG133      0.2616
     13  O         -6.7880   52.0400   64.6960 O.2   133  ARG133     -0.2715
     14  CB        -7.7850   52.4780   67.2810 C.3   133  ARG133      0.0348
     15  CG        -8.2690   53.1110   68.6020 C.3   133  ARG133      0.0492
     16  CD        -7.7580   52.3450   69.8100 C.3   133  ARG133      0.2205
     17  NE        -6.4600   52.8970   70.1240 N.pl3 133  ARG133     -0.0865
     18  CZ        -6.2660   53.9510   70.9190 C.cat 133  ARG133      0.5346
     19  NH1       -7.2920   54.5190   71.5520 N.pl3 133  ARG133      0.1354
     20  NH2       -5.0300   54.4060   71.1100 N.pl3 133  ARG133      0.1354
     21  N         -8.7670   52.5180   63.7160 N.am  134  GLU134     -0.1977
     22  CA        -8.3030   52.1040   62.3970 C.3   134  GLU134      0.1602
     23  C         -7.5780   53.2890   61.7260 C.2   134  GLU134      0.2287
     24  O         -7.5760   54.4100   62.2780 O.2   134  GLU134     -0.2864
     25  CB        -9.4820   51.5980   61.5540 C.3   134  GLU134      0.0415
     26  CG       -10.0330   50.2700   62.0470 C.3   134  GLU134      0.1163
     27  CD        -9.0620   49.1470   61.8220 C.2   134  GLU134      0.3649
     28  OE1       -8.5550   49.0370   60.6730 O.co2 134  GLU134     -0.2457
     29  OE2       -8.8170   48.3660   62.7780 O.co2 134  GLU134     -0.2457
     30  N         -1.7770   32.8260   63.9960 N.3   441  TYR441     -0.1241
     31  CA        -2.4760   34.1160   64.0290 C.3   441  TYR441      0.1605
     32  C         -3.1150   34.2590   62.6490 C.2   441  TYR441      0.2264
     33  O         -4.2910   33.9480   62.4970 O.2   441  TYR441     -0.2867
     34  CB        -1.5700   35.2950   64.4120 C.3   441  TYR441      0.0534
     35  CG        -2.3650   36.5770   64.4740 C.ar  441  TYR441     -0.0201
     36  CD1       -3.2800   36.8030   65.5070 C.ar  441  TYR441     -0.0009
     37  CD2       -2.2510   37.5330   63.4620 C.ar  441  TYR441     -0.0009
     38  CE1       -4.0440   37.9900   65.5470 C.ar  441  TYR441      0.0417
     39  CE2       -3.0220   38.7150   63.4680 C.ar  441  TYR441      0.0417
     40  CZ        -3.9050   38.9390   64.5140 C.ar  441  TYR441      0.1957
     41  OH        -4.6540   40.1100   64.5130 O.3   441  TYR441     -0.2866
     42  N         -4.3590   40.0320   59.0140 N.3   444  PRO444     -0.2102
     43  CA        -3.6070   41.1630   58.4780 C.3   444  PRO444      0.1504
     44  C         -2.9090   41.9930   59.5220 C.2   444  PRO444      0.2576
     45  O         -3.2790   41.9520   60.7090 O.2   444  PRO444     -0.2718
     46  CB        -4.6680   41.9910   57.7160 C.3   444  PRO444      0.0282
     47  CG        -6.0010   41.5030   58.1720 C.3   444  PRO444      0.0208
     48  CD        -5.7990   40.0720   58.6490 C.3   444  PRO444      0.0893
     49  N         -1.8790   42.7120   59.0820 N.am  445  HIS445     -0.1962
     50  CA        -1.0710   43.5710   59.9340 C.3   445  HIS445      0.1787
     51  C         -0.1530   42.8480   60.9260 C.2   445  HIS445      0.2620
     52  O          0.4350   43.5060   61.7830 O.2   445  HIS445     -0.2715
     53  CB        -1.9480   44.5790   60.7310 C.3   445  HIS445      0.0785
     54  CG        -2.4620   45.7170   59.9030 C.ar  445  HIS445      0.0821
     55  ND1       -1.6250   46.6330   59.3070 N.ar  445  HIS445     -0.2267
     56  CD2       -3.7230   46.1020   59.5920 C.ar  445  HIS445      0.1154
     57  CE1       -2.3470   47.5350   58.6610 C.ar  445  HIS445      0.1986
     58  NE2       -3.6240   47.2300   58.8110 N.ar  445  HIS445     -0.2212
     59  N         -0.0340   41.5250   60.8610 N.am  446  ALA446     -0.1977
     60  CA         0.9000   40.8580   61.7470 C.3   446  ALA446      0.1597
     61  C          1.8090   39.9240   60.9680 C.2   446  ALA446      0.2287
     62  O          1.4020   39.3910   59.9460 O.2   446  ALA446     -0.2864
     63  CB         0.1420   40.0700   62.8300 C.3   446  ALA446      0.0319
     64  N         -7.4940   35.9280   69.1740 N.3   522  SER522     -0.1202
     65  CA        -8.0870   36.9840   68.3690 C.3   522  SER522      0.2020
     66  C         -8.3510   36.4900   66.9280 C.2   522  SER522      0.2618
     67  O         -9.1280   35.5330   66.7430 O.2   522  SER522     -0.2717
     68  CB        -7.1870   38.2280   68.4560 C.3   522  SER522      0.2103
     69  OG        -7.9450   39.3370   68.0750 O.3   522  SER522     -0.2182
     70  N         -7.7170   37.0700   65.9090 N.am  523  TYR523     -0.1975
     71  CA        -7.7980   36.4630   64.5510 C.3   523  TYR523      0.1639
     72  C         -7.2860   35.0090   64.6400 C.2   523  TYR523      0.2290
     73  O         -7.7800   34.1170   63.9520 O.2   523  TYR523     -0.2864
     74  CB        -6.9670   37.2650   63.5240 C.3   523  TYR523      0.0560
     75  CG        -7.4170   37.0650   62.0890 C.ar  523  TYR523     -0.0198
     76  CD1       -8.2070   38.0220   61.4580 C.ar  523  TYR523     -0.0009
     77  CD2       -7.0790   35.9120   61.3770 C.ar  523  TYR523     -0.0009
     78  CE1       -8.6210   37.8650   60.1270 C.ar  523  TYR523      0.0417
     79  CE2       -7.5240   35.7160   60.0380 C.ar  523  TYR523      0.0417
     80  CZ        -8.2870   36.7080   59.4410 C.ar  523  TYR523      0.1957
     81  OH        -8.7200   36.5760   58.1540 O.3   523  TYR523     -0.2866
     82  N        -12.7950   35.7580   67.1500 N.3   548  VAL548     -0.1245
     83  CA       -13.8800   36.2040   66.2810 C.3   548  VAL548      0.1561
     84  C        -14.5810   34.9390   65.7680 C.2   548  VAL548      0.2260
     85  O        -13.9100   34.0260   65.3150 O.2   548  VAL548     -0.2867
     86  CB       -13.4060   37.0740   65.0950 C.3   548  VAL548      0.0252
     87  CG1      -14.6540   37.6350   64.3230 C.3   548  VAL548      0.0019
     88  CG2      -12.5450   38.2790   65.5820 C.3   548  VAL548      0.0019
     89  N        -18.2280   37.2650   61.8440 N.3   551  TRP551     -0.1241
     90  CA       -17.6690   38.5290   61.3720 C.3   551  TRP551      0.1605
     91  C        -18.7100   39.6540   61.2370 C.2   551  TRP551      0.2264
     92  O        -18.3550   40.8080   61.1730 O.2   551  TRP551     -0.2867
     93  CB       -16.8990   38.3060   60.0340 C.3   551  TRP551      0.0550
     94  CG       -15.5800   37.6770   60.3150 C.ar  551  TRP551      0.0003
     95  CD1      -15.2960   36.3420   60.3360 C.ar  551  TRP551      0.0946
     96  CD2      -14.3910   38.3510   60.7620 C.ar  551  TRP551      0.0152
     97  NE1      -13.9720   36.1490   60.6890 N.ar  551  TRP551     -0.2442
     98  CE2      -13.4020   37.3590   60.9680 C.ar  551  TRP551      0.0810
     99  CE3      -14.0570   39.6980   60.9580 C.ar  551  TRP551      0.0012
    100  CZ2      -12.1080   37.6530   61.4110 C.ar  551  TRP551      0.0191
    101  CZ3      -12.7550   40.0140   61.4250 C.ar  551  TRP551      0.0001
    102  CH2      -11.7890   38.9930   61.6260 C.ar  551  TRP551      0.0015
    103  N        -18.1230   41.8750   64.1240 N.3   554  TYR554     -0.1227
    104  CA       -16.8590   42.6460   64.2630 C.3   554  TYR554      0.1736
    105  C        -17.0710   44.0890   63.7980 C.2   554  TYR554      0.2595
    106  O        -18.0320   44.3810   63.0850 O.2   554  TYR554     -0.2718
    107  CB       -15.6570   41.9950   63.5250 C.3   554  TYR554      0.0548
    108  CG       -14.3620   42.4320   64.1570 C.ar  554  TYR554     -0.0200
    109  CD1      -14.0370   42.0280   65.4520 C.ar  554  TYR554     -0.0009
    110  CD2      -13.5030   43.3010   63.5130 C.ar  554  TYR554     -0.0009
    111  CE1      -12.8920   42.4640   66.0820 C.ar  554  TYR554      0.0417
    112  CE2      -12.3290   43.7730   64.1510 C.ar  554  TYR554      0.0417
    113  CZ       -12.0420   43.3490   65.4280 C.ar  554  TYR554      0.1957
    114  OH       -10.9120   43.7650   66.0820 O.3   554  TYR554     -0.2866
    115  N        -16.1740   44.9860   64.2020 N.am  555  ALA555     -0.1980
    116  CA       -16.3280   46.4290   63.9590 C.3   555  ALA555      0.1597
    117  C        -16.2860   46.7490   62.4670 C.2   555  ALA555      0.2287
    118  O        -15.5290   46.1400   61.6820 O.2   555  ALA555     -0.2864
    119  CB       -15.2250   47.2080   64.6660 C.3   555  ALA555      0.0319
    120  N        -12.6870   47.8030   60.5470 N.3   558  TYR558     -0.1241
    121  CA       -11.7390   46.7280   60.2140 C.3   558  TYR558      0.1605
    122  C        -12.4150   45.6840   59.3200 C.2   558  TYR558      0.2264
    123  O        -11.9060   45.3510   58.2420 O.2   558  TYR558     -0.2867
    124  CB       -11.2520   46.0580   61.5040 C.3   558  TYR558      0.0534
    125  CG       -10.3470   44.8520   61.3120 C.ar  558  TYR558     -0.0201
    126  CD1       -8.9920   44.9480   61.5270 C.ar  558  TYR558     -0.0009
    127  CD2      -10.8900   43.5980   61.0350 C.ar  558  TYR558     -0.0009
    128  CE1       -8.1390   43.8010   61.3650 C.ar  558  TYR558      0.0417
    129  CE2      -10.0760   42.4530   60.8900 C.ar  558  TYR558      0.0417
    130  CZ        -8.7170   42.5730   61.0480 C.ar  558  TYR558      0.1957
    131  OH        -7.9510   41.4260   60.9650 O.3   558  TYR558     -0.2866
    132  N        -12.8810   44.7060   72.1090 N.3   599  VAL599     -0.1231
    133  CA       -12.3400   44.4880   70.7340 C.3   599  VAL599      0.1692
    134  C        -13.0940   43.3610   70.0500 C.2   599  VAL599      0.2591
    135  O        -13.7080   43.5520   69.0210 O.2   599  VAL599     -0.2718
    136  CB       -10.8170   44.1630   70.7630 C.3   599  VAL599      0.0266
    137  CG1      -10.2880   43.9590   69.3570 C.3   599  VAL599      0.0020
    138  CG2      -10.0330   45.3300   71.4350 C.3   599  VAL599      0.0020
    139  N        -13.0620   42.1790   70.6570 N.am  600  VAL600     -0.1980
    140  CA       -13.8800   41.0580   70.2030 C.3   600  VAL600      0.1595
    141  C        -14.8950   40.8590   71.3180 C.2   600  VAL600      0.2287
    142  O        -14.5340   40.3860   72.3980 O.2   600  VAL600     -0.2864
    143  CB       -13.0120   39.7700   69.9830 C.3   600  VAL600      0.0276
    144  CG1      -13.9450   38.6040   69.6980 C.3   600  VAL600      0.0022
    145  CG2      -12.0160   39.9870   68.7900 C.3   600  VAL600      0.0022
    146  N         -9.3720   42.5110   76.0490 N.3   629  HIS629     -0.1241
    147  CA        -9.1300   41.5560   74.9600 C.3   629  HIS629      0.1621
    148  C         -8.0260   40.5450   75.2780 C.2   629  HIS629      0.2264
    149  O         -8.1590   39.3420   74.9620 O.2   629  HIS629     -0.2867
    150  CB        -8.8110   42.2920   73.6550 C.3   629  HIS629      0.0745
    151  CG        -8.7940   41.4080   72.4430 C.ar  629  HIS629      0.0817
    152  ND1       -9.7660   40.4560   72.1910 N.ar  629  HIS629     -0.2268
    153  CD2       -7.9310   41.3580   71.3930 C.ar  629  HIS629      0.1154
    154  CE1       -9.4850   39.8430   71.0480 C.ar  629  HIS629      0.1986
    155  NE2       -8.3980   40.3900   70.5320 N.ar  629  HIS629     -0.2212
@<TRIPOS>BOND
     1    46    47    1
     2    46    43    1
     3    81    80    1
     4    47    48    1
     5   123   122    2
     6    43    42    1
     7    43    44    1
     8    48    42    1
     9    57    58   ar
    10    57    55   ar
    11    58    56   ar
    12    49    44   am
    13    49    50    1
    14    55    54   ar
    15   122   121    1
    16    80    79   ar
    17    80    78   ar
    18    44    45    2
    19    56    54   ar
    20    54    53    1
    21    50    53    1
    22    50    51    1
    23    62    61    2
    24    93    94    1
    25    93    90    1
    26    79    77   ar
    27    78    76   ar
    28   121   120    1
    29   121   124    1
    30    94    95   ar
    31    94    96   ar
    32    95    97   ar
    33    28    27   ar
    34    97    98   ar
    35    96    99   ar
    36    96    98   ar
    37    59    51   am
    38    59    60    1
    39   129   127   ar
    40   129   130   ar
    41    51    52    2
    42    99   101   ar
    43   131   130    1
    44    61    60    1
    45    98   100   ar
    46   127   125   ar
    47   130   128   ar
    48    92    91    2
    49    91    90    1
    50   125   124    1
    51   125   126   ar
    52   128   126   ar
    53    90    89    1
    54    77    75   ar
    55   100   102   ar
    56   101   102   ar
    57    76    75   ar
    58    25    26    1
    59    25    22    1
    60   118   117    2
    61    23    24    2
    62    23    22    1
    63    60    63    1
    64    27    26    1
    65    27    29   ar
    66    75    74    1
    67    22    21    1
    68   117   116    1
    69    33    32    2
    70    32    31    1
    71   106   105    2
    72    37    39   ar
    73    37    35   ar
    74    39    40   ar
    75   110   112   ar
    76   110   108   ar
    77    74    71    1
    78   107   108    1
    79   107   104    1
    80    21    12   am
    81   105   115   am
    82   105   104    1
    83    73    72    2
    84   116   115    1
    85   116   119    1
    86    30    31    1
    87    31    34    1
    88   103   104    1
    89   112   113   ar
    90   108   109   ar
    91    87    86    1
    92    34    35    1
    93    35    36   ar
    94    41    40    1
    95    40    38   ar
    96    71    72    1
    97    71    70    1
    98    13    12    2
    99    12    11    1
   100    86    88    1
   101    86    83    1
   102    85    84    2
   103   113   114    1
   104   113   111   ar
   105   109   111   ar
   106    36    38   ar
   107     5     6    1
   108     5     2    1
   109     1     2    1
   110    84    83    1
   111    70    66   am
   112     4     3    2
   113    11    10    1
   114    11    14    1
   115     3    10   am
   116     3     2    1
   117     6     7    1
   118    83    82    1
   119    67    66    2
   120    66    65    1
   121    14    15    1
   122     7     9   am
   123     7     8    2
   124    69    68    1
   125    65    68    1
   126    65    64    1
   127    15    16    1
   128   145   143    1
   129   135   134    2
   130   137   136    1
   131   144   143    1
   132    16    17    1
   133   143   140    1
   134   134   139   am
   135   134   133    1
   136    17    18    2
   137   140   139    1
   138   140   141    1
   139   155   154   ar
   140   155   153   ar
   141   133   136    1
   142   133   132    1
   143   136   138    1
   144    18    20    1
   145    18    19    1
   146   154   152   ar
   147   141   142    2
   148   153   151   ar
   149   152   151   ar
   150   151   150    1
   151   150   147    1
   152   147   148    1
   153   147   146    1
   154   149   148    2
