@<TRIPOS>MOLECULE
tmp/2z48B05.pdb
 127 117 0 0 0
SMALL
GASTEIGER

@<TRIPOS>ATOM
      1  N         20.9190   45.0220   32.9370 N.3     8  ASP8       -0.1239
      2  CA        19.7450   44.3620   33.5140 C.3     8  ASP8        0.1674
      3  C         18.6620   44.2750   32.4480 C.2     8  ASP8        0.2266
      4  O         18.5560   45.1590   31.6150 O.2     8  ASP8       -0.2867
      5  CB        19.2550   45.1910   34.7290 C.3     8  ASP8        0.1410
      6  CG        18.5830   44.3610   35.8010 C.2     8  ASP8        0.3668
      7  OD1       18.3420   43.1610   35.5580 O.co2   8  ASP8       -0.2456
      8  OD2       18.2610   44.9390   36.9010 O.co2   8  ASP8       -0.2456
      9  N         10.3510   47.0490   34.3010 N.3    12  LEU12      -0.1245
     10  CA        10.6650   48.2500   35.0380 C.3    12  LEU12       0.1561
     11  C          9.4160   48.7290   35.7520 C.2    12  LEU12       0.2260
     12  O          8.4110   49.0330   35.1130 O.2    12  LEU12      -0.2867
     13  CB        11.2290   49.3290   34.1030 C.3    12  LEU12       0.0270
     14  CG        11.7000   50.6330   34.7310 C.3    12  LEU12       0.0019
     15  CD1       12.9300   50.4650   35.6530 C.3    12  LEU12       0.0001
     16  CD2       11.9760   51.6440   33.5770 C.3    12  LEU12       0.0001
     17  N         18.3210   47.7530   30.5220 N.3    47  ILE47      -0.1245
     18  CA        19.1200   48.8390   31.0520 C.3    47  ILE47       0.1561
     19  C         20.4990   48.6880   30.4410 C.2    47  ILE47       0.2260
     20  O         21.2100   47.7430   30.7420 O.2    47  ILE47      -0.2867
     21  CB        19.2000   48.7750   32.5870 C.3    47  ILE47       0.0252
     22  CG1       17.7950   48.7010   33.1990 C.3    47  ILE47       0.0019
     23  CG2       20.0630   49.9360   33.1280 C.3    47  ILE47       0.0019
     24  CD1       16.8450   49.8910   32.8740 C.3    47  ILE47       0.0001
     25  N         21.3600   56.5890   37.4030 N.3    91  GLN91      -0.1245
     26  CA        20.5730   56.3320   38.5920 C.3    91  GLN91       0.1566
     27  C         20.8810   57.3650   39.6750 C.2    91  GLN91       0.2260
     28  O         22.0330   57.7530   39.8820 O.2    91  GLN91      -0.2867
     29  CB        20.8390   54.9330   39.1340 C.3    91  GLN91       0.0367
     30  CG        20.5470   53.8360   38.1680 C.3    91  GLN91       0.0905
     31  CD        20.8150   52.4760   38.7640 C.2    91  GLN91       0.2608
     32  OE1       21.7790   52.2810   39.5240 O.2    91  GLN91      -0.2717
     33  NE2       19.9810   51.5240   38.4230 N.am   91  GLN91      -0.0878
     34  N         18.5360   56.0410   46.0690 N.3    94  ARG94      -0.1245
     35  CA        17.9890   54.7030   46.0870 C.3    94  ARG94       0.1563
     36  C         17.0430   54.4730   47.2660 C.2    94  ARG94       0.2260
     37  O         17.1620   55.1000   48.3410 O.2    94  ARG94      -0.2867
     38  CB        19.1300   53.6590   46.0270 C.3    94  ARG94       0.0307
     39  CG        19.6130   53.2010   47.3590 C.3    94  ARG94       0.0489
     40  CD        20.9650   52.5500   47.3060 C.3    94  ARG94       0.2205
     41  NE        20.9790   51.2250   46.6970 N.pl3  94  ARG94      -0.0865
     42  CZ        20.9860   50.0620   47.3440 C.cat  94  ARG94       0.5346
     43  NH1       20.9120   50.0050   48.6800 N.pl3  94  ARG94       0.1354
     44  NH2       21.0740   48.9380   46.6560 N.pl3  94  ARG94       0.1354
     45  N         15.2930   46.9630   44.6030 N.3   106  VAL106     -0.1245
     46  CA        16.0580   48.2040   44.7170 C.3   106  VAL106      0.1561
     47  C         15.5180   49.1920   43.7000 C.2   106  VAL106      0.2260
     48  O         15.6060   48.9660   42.5100 O.2   106  VAL106     -0.2867
     49  CB        17.5820   47.9820   44.4660 C.3   106  VAL106      0.0252
     50  CG1       18.3290   49.3170   44.6010 C.3   106  VAL106      0.0019
     51  CG2       18.1560   46.9250   45.4430 C.3   106  VAL106      0.0019
     52  N         15.4590   53.2530   42.2670 N.3   108  THR108     -0.1218
     53  CA        16.2650   54.4740   42.2280 C.3   108  THR108      0.1862
     54  C         15.5420   55.5070   41.3920 C.2   108  THR108      0.2287
     55  O         14.6770   55.1790   40.5650 O.2   108  THR108     -0.2866
     56  CB        17.6830   54.2490   41.5980 C.3   108  THR108      0.1770
     57  OG1       17.5610   54.0780   40.1750 O.3   108  THR108     -0.2211
     58  CG2       18.4090   53.0270   42.2290 C.3   108  THR108      0.0375
     59  N         15.6360   57.7520   38.1710 N.3   110  ILE110     -0.1245
     60  CA        16.2210   57.5820   36.8500 C.3   110  ILE110      0.1561
     61  C         16.2760   58.9760   36.2400 C.2   110  ILE110      0.2260
     62  O         15.2320   59.5670   35.9300 O.2   110  ILE110     -0.2867
     63  CB        15.3960   56.6040   35.9830 C.3   110  ILE110      0.0252
     64  CG1       15.4140   55.2000   36.5940 C.3   110  ILE110      0.0019
     65  CG2       15.9460   56.5540   34.5460 C.3   110  ILE110      0.0019
     66  CD1       14.6630   54.1780   35.7630 C.3   110  ILE110      0.0001
     67  N         12.0800   53.8970   40.6010 N.3   143  PHE143     -0.1227
     68  CA        11.7280   52.7830   39.7300 C.3   143  PHE143      0.1736
     69  C         12.6510   51.6190   40.0120 C.2   143  PHE143      0.2595
     70  O         13.8220   51.8330   40.2690 O.2   143  PHE143     -0.2718
     71  CB        11.8640   53.1790   38.2460 C.3   143  PHE143      0.0547
     72  CG        10.9650   54.3240   37.8410 C.ar  143  PHE143     -0.0202
     73  CD1       11.3560   55.6530   38.0620 C.ar  143  PHE143     -0.0042
     74  CD2        9.7130   54.0650   37.2790 C.ar  143  PHE143     -0.0042
     75  CE1       10.5140   56.7100   37.7030 C.ar  143  PHE143     -0.0003
     76  CE2        8.8590   55.1270   36.9160 C.ar  143  PHE143     -0.0003
     77  CZ         9.2700   56.4430   37.1270 C.ar  143  PHE143     -0.0000
     78  N         12.1330   50.3960   39.9360 N.am  144  TYR144     -0.1962
     79  CA        12.9950   49.2030   40.0690 C.3   144  TYR144      0.1771
     80  C         12.8000   48.2330   38.9160 C.2   144  TYR144      0.2619
     81  O         11.7110   48.1040   38.3630 O.2   144  TYR144     -0.2715
     82  CB        12.7460   48.4770   41.4080 C.3   144  TYR144      0.0574
     83  CG        11.3540   47.8910   41.6270 C.ar  144  TYR144     -0.0198
     84  CD1       11.1540   46.5000   41.5710 C.ar  144  TYR144     -0.0009
     85  CD2       10.2590   48.7070   41.9590 C.ar  144  TYR144     -0.0009
     86  CE1        9.9100   45.9350   41.7990 C.ar  144  TYR144      0.0417
     87  CE2        8.9730   48.1460   42.1820 C.ar  144  TYR144      0.0417
     88  CZ         8.8210   46.7570   42.1020 C.ar  144  TYR144      0.1957
     89  OH         7.5900   46.1790   42.3220 O.3   144  TYR144     -0.2866
     90  N         13.8560   47.5070   38.5770 N.am  145  VAL145     -0.1977
     91  CA        13.7250   46.3510   37.6910 C.3   145  VAL145      0.1596
     92  C         13.3330   45.1460   38.5770 C.2   145  VAL145      0.2287
     93  O         14.0580   44.7590   39.5020 O.2   145  VAL145     -0.2864
     94  CB        15.0310   46.0860   36.8990 C.3   145  VAL145      0.0276
     95  CG1       14.9050   44.8380   36.0920 C.3   145  VAL145      0.0022
     96  CG2       15.3660   47.2750   36.0020 C.3   145  VAL145      0.0022
     97  N         12.8070   41.8700   40.3850 N.3   147  SER147     -0.1217
     98  CA        13.4430   40.5690   40.5440 C.3   147  SER147      0.1889
     99  C         12.3840   39.5570   41.0290 C.2   147  SER147      0.2288
    100  O         11.5440   39.8950   41.8580 O.2   147  SER147     -0.2866
    101  CB        14.5830   40.6390   41.5660 C.3   147  SER147      0.2089
    102  OG        15.0770   39.3240   41.8130 O.3   147  SER147     -0.2183
    103  N         20.1480   39.0520   39.5340 N.3   343  LYS343     -0.1245
    104  CA        19.8280   39.8270   38.3320 C.3   343  LYS343      0.1561
    105  C         20.7080   39.4360   37.1580 C.2   343  LYS343      0.2260
    106  O         20.2690   39.5080   36.0140 O.2   343  LYS343     -0.2867
    107  CB        19.8090   41.3500   38.5880 C.3   343  LYS343      0.0271
    108  CG        21.1520   41.9610   38.8730 C.3   343  LYS343      0.0035
    109  CD        21.6180   42.8370   37.6900 C.3   343  LYS343      0.0206
    110  CE        23.0450   43.3110   37.9310 C.3   343  LYS343      0.1093
    111  NZ        23.4550   44.4560   37.0480 N.3   343  LYS343     -0.1314
    112  N         27.5540   47.7790   39.8520 N.3   430  ASP430     -0.1225
    113  CA        26.2820   47.2750   39.3600 C.3   430  ASP430      0.1805
    114  C         26.2850   45.7620   39.3380 C.2   430  ASP430      0.2597
    115  O         25.8880   45.1400   38.3370 O.2   430  ASP430     -0.2718
    116  CB        26.0170   47.8590   37.9740 C.3   430  ASP430      0.1424
    117  CG        25.9590   49.3630   37.9990 C.2   430  ASP430      0.3668
    118  OD1       24.9000   49.9010   38.3850 O.co2 430  ASP430     -0.2456
    119  OD2       26.9820   50.0020   37.6750 O.co2 430  ASP430     -0.2456
    120  N         26.7440   45.1640   40.4420 N.am  431  ILE431     -0.1980
    121  CA        26.8490   43.7040   40.5160 C.3   431  ILE431      0.1595
    122  C         25.4810   43.0360   40.6720 C.2   431  ILE431      0.2287
    123  O         25.3460   41.8610   40.3100 O.2   431  ILE431     -0.2864
    124  CB        27.8450   43.2200   41.5740 C.3   431  ILE431      0.0276
    125  CG1       27.3530   43.5800   42.9660 C.3   431  ILE431      0.0022
    126  CG2       29.2750   43.7490   41.2620 C.3   431  ILE431      0.0022
    127  CD1       28.2830   43.1760   44.0200 C.3   431  ILE431      0.0001
@<TRIPOS>BOND
     1    19    20    2
     2    19    18    1
     3    17    18    1
     4    18    21    1
     5     4     3    2
     6     3     2    1
     7    21    23    1
     8    21    22    1
     9    24    22    1
    10     1     2    1
    11     2     5    1
    12    16    14    1
    13    13    14    1
    14    13    10    1
    15     9    10    1
    16    65    63    1
    17     5     6    1
    18    14    15    1
    19    10    11    1
    20    12    11    2
    21     7     6   ar
    22    66    64    1
    23     6     8   ar
    24    62    61    2
    25    63    64    1
    26    63    60    1
    27    96    94    1
    28   106   105    2
    29    95    94    1
    30    61    60    1
    31    60    59    1
    32    94    91    1
    33    76    77   ar
    34    76    74   ar
    35   111   110    1
    36    77    75   ar
    37   105   104    1
    38    74    72   ar
    39    25    26    1
    40   119   117   ar
    41   109   110    1
    42   109   108    1
    43    91    90    1
    44    91    92    1
    45    75    73   ar
    46    72    73   ar
    47    72    71    1
    48   116   117    1
    49   116   113    1
    50   117   118   ar
    51    30    31    1
    52    30    29    1
    53    71    68    1
    54   104   107    1
    55   104   103    1
    56   115   114    2
    57    81    80    2
    58    33    31   am
    59    90    80   am
    60    92    93    2
    61   107   108    1
    62    26    29    1
    63    26    27    1
    64    31    32    2
    65    80    79    1
    66   114   113    1
    67   114   120   am
    68   113   112    1
    69    27    28    2
    70    68    69    1
    71    68    67    1
    72    78    69   am
    73    78    79    1
    74    69    70    2
    75    79    82    1
    76    57    56    1
    77   123   122    2
    78    97    98    1
    79   120   121    1
    80   121   122    1
    81   121   124    1
    82    98    99    1
    83    98   101    1
    84    55    54    2
    85    99   100    2
    86   126   124    1
    87    54    53    1
    88    82    83    1
    89   101   102    1
    90    84    83   ar
    91    84    86   ar
    92   124   125    1
    93    56    53    1
    94    56    58    1
    95    83    85   ar
    96    86    88   ar
    97    85    87   ar
    98    88    87   ar
    99    88    89    1
   100    53    52    1
   101    48    47    2
   102   125   127    1
   103    47    46    1
   104    49    50    1
   105    49    46    1
   106    49    51    1
   107    45    46    1
   108    38    35    1
   109    38    39    1
   110    34    35    1
   111    35    36    1
   112    44    42    1
   113    41    40    1
   114    41    42    2
   115    36    37    2
   116    40    39    1
   117    42    43    1
