@<TRIPOS>MOLECULE
tmp/2z48B02.pdb
 79 74 0 0 0
SMALL
GASTEIGER

@<TRIPOS>ATOM
      1  N         -0.3500   19.6880   32.9680 N.3   167  ASP167     -0.1225
      2  CA        -0.5330   20.0330   31.5620 C.3   167  ASP167      0.1805
      3  C         -1.4000   21.2750   31.4270 C.2   167  ASP167      0.2598
      4  O         -2.1940   21.5820   32.3120 O.2   167  ASP167     -0.2718
      5  CB        -1.1940   18.8420   30.8630 C.3   167  ASP167      0.1424
      6  CG        -1.6040   19.1460   29.4200 C.2   167  ASP167      0.3668
      7  OD1       -0.8050   19.4500   28.5890 O.co2 167  ASP167     -0.2456
      8  OD2       -2.7440   19.1020   29.0450 O.co2 167  ASP167     -0.2456
      9  N         -1.2150   22.0020   30.3270 N.am  168  VAL168     -0.1966
     10  CA        -2.1040   23.0850   29.9800 C.3   168  VAL168      0.1727
     11  C         -2.8170   22.6150   28.7210 C.2   168  VAL168      0.2616
     12  O         -2.1790   22.0980   27.8070 O.2   168  VAL168     -0.2715
     13  CB        -1.3320   24.3840   29.7080 C.3   168  VAL168      0.0290
     14  CG1       -2.3320   25.5600   29.5320 C.3   168  VAL168      0.0023
     15  CG2       -0.3270   24.6820   30.8500 C.3   168  VAL168      0.0023
     16  N         -4.1310   22.7910   28.6820 N.am  169  GLU169     -0.1963
     17  CA        -4.9380   22.3860   27.5400 C.3   169  GLU169      0.1733
     18  C         -4.3790   22.9890   26.2360 C.2   169  GLU169      0.2617
     19  O         -3.9720   24.1530   26.1990 O.2   169  GLU169     -0.2715
     20  CB        -6.3840   22.8100   27.8120 C.3   169  GLU169      0.0429
     21  CG        -7.1370   23.3290   26.6470 C.3   169  GLU169      0.1163
     22  CD        -8.6010   23.0130   26.7650 C.2   169  GLU169      0.3649
     23  OE1       -9.1580   22.4490   25.7880 O.co2 169  GLU169     -0.2457
     24  OE2       -9.1850   23.2820   27.8450 O.co2 169  GLU169     -0.2457
     25  N         -4.3560   22.1810   25.1820 N.am  170  GLY170     -0.1940
     26  CA        -3.7720   22.6160   23.9010 C.3   170  GLY170      0.2014
     27  C         -2.2560   22.6540   23.9770 C.2   170  GLY170      0.2639
     28  O         -1.6520   21.8500   24.6930 O.2   170  GLY170     -0.2714
     29  N         -1.6340   23.6020   23.2620 N.am  171  SER171     -0.1949
     30  CA        -0.1640   23.6900   23.2400 C.3   171  SER171      0.1924
     31  C          0.4170   25.1140   23.3910 C.2   171  SER171      0.2314
     32  O          1.6410   25.2970   23.3190 O.2   171  SER171     -0.2863
     33  CB         0.3790   23.0250   21.9740 C.3   171  SER171      0.2116
     34  OG         0.0230   23.7810   20.8320 O.3   171  SER171     -0.2180
     35  N         -4.6420   20.7390   33.7830 N.3   178  LEU178     -0.1245
     36  CA        -5.2020   19.4040   34.0290 C.3   178  LEU178      0.1561
     37  C         -4.0480   18.4100   33.9660 C.2   178  LEU178      0.2260
     38  O         -2.9110   18.7820   33.6480 O.2   178  LEU178     -0.2867
     39  CB        -6.2690   19.0620   32.9520 C.3   178  LEU178      0.0270
     40  CG        -5.8710   18.8610   31.4820 C.3   178  LEU178      0.0019
     41  CD1       -7.0170   18.1690   30.7270 C.3   178  LEU178      0.0001
     42  CD2       -5.5350   20.1930   30.8040 C.3   178  LEU178      0.0001
     43  N         -2.1920   15.2210   32.1530 N.3   180  TYR180     -0.1241
     44  CA        -2.1460   14.6010   30.8150 C.3   180  TYR180      0.1605
     45  C         -0.8440   13.8630   30.6370 C.2   180  TYR180      0.2264
     46  O          0.1240   14.0840   31.3780 O.2   180  TYR180     -0.2867
     47  CB        -2.2480   15.6790   29.7480 C.3   180  TYR180      0.0534
     48  CG        -2.8430   15.2250   28.4240 C.ar  180  TYR180     -0.0201
     49  CD1       -4.2240   15.0560   28.2900 C.ar  180  TYR180     -0.0009
     50  CD2       -2.0360   14.9830   27.3200 C.ar  180  TYR180     -0.0009
     51  CE1       -4.7850   14.6590   27.0980 C.ar  180  TYR180      0.0417
     52  CE2       -2.5920   14.5850   26.1070 C.ar  180  TYR180      0.0417
     53  CZ        -3.9640   14.4140   26.0120 C.ar  180  TYR180      0.1957
     54  OH        -4.5390   14.0220   24.8180 O.3   180  TYR180     -0.2866
     55  N          4.4840   15.1830   27.6040 N.3   183  GLU183     -0.1245
     56  CA         4.7820   15.4590   26.1940 C.3   183  GLU183      0.1567
     57  C          6.0060   16.3570   26.0720 C.2   183  GLU183      0.2260
     58  O          6.2890   17.1500   26.9780 O.2   183  GLU183     -0.2867
     59  CB         3.5950   16.1290   25.5180 C.3   183  GLU183      0.0388
     60  CG         2.3720   15.2230   25.4300 C.3   183  GLU183      0.1160
     61  CD         1.1530   15.9070   24.8700 C.2   183  GLU183      0.3649
     62  OE1        0.1880   15.2930   24.5080 O.co2 183  GLU183     -0.2457
     63  OE2        1.0720   17.0870   24.7620 O.co2 183  GLU183     -0.2457
     64  N          6.4440   19.0540   24.7040 N.3   185  ASN185     -0.1240
     65  CA         5.9450   20.4000   24.3960 C.3   185  ASN185      0.1653
     66  C          6.3180   21.3090   25.5450 C.2   185  ASN185      0.2266
     67  O          6.2620   20.8810   26.7080 O.2   185  ASN185     -0.2867
     68  CB         4.4150   20.4110   24.3520 C.3   185  ASN185      0.1155
     69  CG         3.8510   20.4260   22.9610 C.2   185  ASN185      0.2627
     70  OD1        2.7300   19.9410   22.7470 O.2   185  ASN185     -0.2716
     71  ND2        4.5960   20.9820   21.9960 N.am  185  ASN185     -0.0877
     72  N          4.6760   23.6820   26.8140 N.3   187  ASP187     -0.1239
     73  CA         3.5570   24.0830   27.6650 C.3   187  ASP187      0.1674
     74  C          3.5280   23.2940   28.9670 C.2   187  ASP187      0.2266
     75  O          2.7840   23.6620   29.8660 O.2   187  ASP187     -0.2867
     76  CB         2.2040   24.0180   26.9420 C.3   187  ASP187      0.1410
     77  CG         1.7500   22.6050   26.6450 C.2   187  ASP187      0.3668
     78  OD1        2.5930   21.7410   26.3390 O.co2 187  ASP187     -0.2456
     79  OD2        0.5230   22.3560   26.7170 O.co2 187  ASP187     -0.2456
@<TRIPOS>BOND
     1    34    33    1
     2    33    30    1
     3    71    69   am
     4    70    69    2
     5    69    68    1
     6    30    29    1
     7    30    31    1
     8    29    27   am
     9    32    31    2
    10    26    27    1
    11    26    25    1
    12    27    28    2
    13    68    65    1
    14    65    64    1
    15    65    66    1
    16    62    61   ar
    17    63    61   ar
    18    54    53    1
    19    61    60    1
    20    25    18   am
    21    60    59    1
    22    59    56    1
    23    66    67    2
    24    23    22   ar
    25    53    52   ar
    26    53    51   ar
    27    57    56    1
    28    57    58    2
    29    52    50   ar
    30    56    55    1
    31    19    18    2
    32    18    17    1
    33    78    77   ar
    34    77    79   ar
    35    77    76    1
    36    21    22    1
    37    21    20    1
    38    22    24   ar
    39    72    73    1
    40    76    73    1
    41    51    49   ar
    42    50    48   ar
    43    17    20    1
    44    17    16    1
    45    73    74    1
    46    12    11    2
    47    49    48   ar
    48    48    47    1
    49     7     6   ar
    50    16    11   am
    51    11    10    1
    52    74    75    2
    53     8     6   ar
    54     6     5    1
    55    14    13    1
    56    13    10    1
    57    13    15    1
    58    47    44    1
    59    10     9    1
    60     9     3   am
    61    45    44    1
    62    45    46    2
    63    41    40    1
    64    42    40    1
    65    44    43    1
    66     5     2    1
    67     3     2    1
    68     3     4    2
    69    40    39    1
    70     2     1    1
    71    39    36    1
    72    38    37    2
    73    35    36    1
    74    37    36    1
