@<TRIPOS>MOLECULE
tmp/2z49B04.pdb
 79 75 0 0 0
SMALL
GASTEIGER

@<TRIPOS>ATOM
      1  N         12.9540    4.2950   44.2250 N.3    69  ASN69      -0.1240
      2  CA        11.9180    3.2840   44.4300 C.3    69  ASN69       0.1653
      3  C         11.4210    2.8130   43.0760 C.2    69  ASN69       0.2266
      4  O         11.0240    3.6280   42.2350 O.2    69  ASN69      -0.2867
      5  CB        10.7560    3.8330   45.2540 C.3    69  ASN69       0.1155
      6  CG        11.1550    4.2020   46.6700 C.2    69  ASN69       0.2627
      7  OD1       12.2420    3.8640   47.1470 O.2    69  ASN69      -0.2716
      8  ND2       10.2650    4.9060   47.3540 N.am   69  ASN69      -0.0877
      9  N         11.8080   -5.3750   48.6400 N.3   120  ASP120     -0.1225
     10  CA        10.6240   -4.9650   49.3810 C.3   120  ASP120      0.1805
     11  C          9.3370   -5.5270   48.7870 C.2   120  ASP120      0.2598
     12  O          9.2050   -5.6170   47.5820 O.2   120  ASP120     -0.2718
     13  CB        10.5710   -3.4320   49.4120 C.3   120  ASP120      0.1424
     14  CG         9.2500   -2.9070   49.9160 C.2   120  ASP120      0.3668
     15  OD1        8.9800   -3.0200   51.1300 O.co2 120  ASP120     -0.2456
     16  OD2        8.4670   -2.4090   49.0830 O.co2 120  ASP120     -0.2456
     17  N          8.4000   -5.9120   49.6450 N.am  121  ILE121     -0.1966
     18  CA         7.0600   -6.3060   49.2100 C.3   121  ILE121      0.1727
     19  C          6.1330   -5.1070   49.4380 C.2   121  ILE121      0.2616
     20  O          6.3130   -4.3770   50.4140 O.2   121  ILE121     -0.2715
     21  CB         6.5500   -7.5480   49.9850 C.3   121  ILE121      0.0290
     22  CG1        7.5470   -8.7080   49.8520 C.3   121  ILE121      0.0022
     23  CG2        5.1790   -8.0120   49.4760 C.3   121  ILE121      0.0023
     24  CD1        7.3040   -9.8590   50.8270 C.3   121  ILE121      0.0001
     25  N          5.1720   -4.8840   48.5310 N.am  122  GLU122     -0.1963
     26  CA         4.2280   -3.7520   48.6720 C.3   122  GLU122      0.1733
     27  C          3.5630   -3.8120   50.0330 C.2   122  GLU122      0.2617
     28  O          3.2380   -4.8970   50.5070 O.2   122  GLU122     -0.2715
     29  CB         3.1490   -3.7650   47.5810 C.3   122  GLU122      0.0429
     30  CG         2.4740   -5.1130   47.3890 C.3   122  GLU122      0.1163
     31  CD         1.1440   -5.0360   46.6650 C.2   122  GLU122      0.3649
     32  OE1        0.1470   -4.6380   47.3160 O.co2 122  GLU122     -0.2457
     33  OE2        1.0860   -5.4120   45.4650 O.co2 122  GLU122     -0.2457
     34  N          3.3670   -2.6550   50.6640 N.am  123  GLY123     -0.1940
     35  CA         2.6920   -2.6120   51.9620 C.3   123  GLY123      0.2014
     36  C          3.5050   -3.2700   53.0640 C.2   123  GLY123      0.2639
     37  O          4.7340   -3.2290   53.0310 O.2   123  GLY123     -0.2714
     38  N          2.8230   -3.8950   54.0230 N.am  124  SER124     -0.1949
     39  CA         3.4790   -4.4320   55.2280 C.3   124  SER124      0.1924
     40  C          3.1020   -5.8700   55.5790 C.2   124  SER124      0.2314
     41  O          3.6750   -6.4520   56.5140 O.2   124  SER124     -0.2863
     42  CB         3.1390   -3.5620   56.4260 C.3   124  SER124      0.2116
     43  OG         1.7580   -3.7100   56.7490 O.3   124  SER124     -0.2180
     44  N         12.1160   -2.3370   44.9350 N.3   132  VAL132     -0.1231
     45  CA        13.0640   -1.7600   45.8920 C.3   132  VAL132      0.1692
     46  C         12.4590   -0.5420   46.5790 C.2   132  VAL132      0.2592
     47  O         11.5620    0.1160   46.0370 O.2   132  VAL132     -0.2718
     48  CB        14.4470   -1.3980   45.2730 C.3   132  VAL132      0.0266
     49  CG1       15.1950   -2.6610   44.8470 C.3   132  VAL132      0.0020
     50  CG2       14.3200   -0.4020   44.1150 C.3   132  VAL132      0.0020
     51  N         12.9550   -0.2490   47.7720 N.am  133  TYR133     -0.1976
     52  CA        12.3970    0.8020   48.6040 C.3   133  TYR133      0.1639
     53  C         13.3630    1.0780   49.7500 C.2   133  TYR133      0.2290
     54  O         14.2130    0.2350   50.0540 O.2   133  TYR133     -0.2864
     55  CB        11.0140    0.3750   49.1330 C.3   133  TYR133      0.0560
     56  CG        10.3100    1.4310   49.9450 C.ar  133  TYR133     -0.0198
     57  CD1        9.5330    2.4110   49.3340 C.ar  133  TYR133     -0.0009
     58  CD2       10.4340    1.4520   51.3310 C.ar  133  TYR133     -0.0009
     59  CE1        8.8930    3.3920   50.0950 C.ar  133  TYR133      0.0417
     60  CE2        9.8190    2.4160   52.0940 C.ar  133  TYR133      0.0417
     61  CZ         9.0470    3.3830   51.4780 C.ar  133  TYR133      0.1957
     62  OH         8.4400    4.3320   52.2680 O.3   133  TYR133     -0.2866
     63  N         13.1370   -0.0290   55.7380 N.3   136  GLN136     -0.1245
     64  CA        12.3320    0.3520   56.9120 C.3   136  GLN136      0.1566
     65  C         12.3450   -0.6520   58.0750 C.2   136  GLN136      0.2260
     66  O         11.5150   -0.5790   58.9760 O.2   136  GLN136     -0.2867
     67  CB        10.8900    0.7690   56.5230 C.3   136  GLN136      0.0367
     68  CG        10.1880   -0.0030   55.3960 C.3   136  GLN136      0.0905
     69  CD         9.7270   -1.3800   55.8110 C.2   136  GLN136      0.2608
     70  OE1       10.2960   -1.9820   56.7150 O.2   136  GLN136     -0.2717
     71  NE2        8.6980   -1.9030   55.1330 N.am  136  GLN136     -0.0878
     72  N         11.2410   -3.5150   58.7170 N.3   138  LEU138     -0.1245
     73  CA        10.0920   -4.3630   59.0310 C.3   138  LEU138      0.1561
     74  C         10.3030   -5.7620   58.4500 C.2   138  LEU138      0.2260
     75  O         11.1180   -5.9480   57.5390 O.2   138  LEU138     -0.2867
     76  CB         8.7690   -3.7460   58.5280 C.3   138  LEU138      0.0270
     77  CG         8.3430   -2.3620   59.0540 C.3   138  LEU138      0.0019
     78  CD1        7.1500   -1.7980   58.2660 C.3   138  LEU138      0.0001
     79  CD2        8.0080   -2.4120   60.5160 C.3   138  LEU138      0.0001
@<TRIPOS>BOND
     1     4     3    2
     2     3     2    1
     3    50    48    1
     4     1     2    1
     5     2     5    1
     6    49    48    1
     7    44    45    1
     8     5     6    1
     9    48    45    1
    10    33    31   ar
    11    45    46    1
    12    47    46    2
    13    46    51   am
    14    31    32   ar
    15    31    30    1
    16     6     7    2
    17     6     8   am
    18    30    29    1
    19    29    26    1
    20    12    11    2
    21    51    52    1
    22    25    26    1
    23    25    19   am
    24    52    55    1
    25    52    53    1
    26     9    10    1
    27    26    27    1
    28    11    10    1
    29    11    17   am
    30    16    14   ar
    31    55    56    1
    32    18    19    1
    33    18    17    1
    34    18    21    1
    35    57    56   ar
    36    57    59   ar
    37    10    13    1
    38    13    14    1
    39    19    20    2
    40    23    21    1
    41    53    54    2
    42    22    21    1
    43    22    24    1
    44    14    15   ar
    45    56    58   ar
    46    27    28    2
    47    27    34   am
    48    59    61   ar
    49    34    35    1
    50    58    60   ar
    51    61    60   ar
    52    61    62    1
    53    35    36    1
    54    37    36    2
    55    36    38   am
    56    38    39    1
    57    71    69   am
    58    39    40    1
    59    39    42    1
    60    68    69    1
    61    68    67    1
    62    40    41    2
    63    63    64    1
    64    69    70    2
    65    42    43    1
    66    67    64    1
    67    64    65    1
    68    75    74    2
    69    65    66    2
    70    78    77    1
    71    74    73    1
    72    76    73    1
    73    76    77    1
    74    72    73    1
    75    77    79    1
