@<TRIPOS>MOLECULE
tmp/2z49B01.pdb
 79 74 0 0 0
SMALL
GASTEIGER

@<TRIPOS>ATOM
      1  N          3.3280  -46.2850   46.2640 N.3   167  ASP167     -0.1225
      2  CA         3.2360  -45.9750   44.8470 C.3   167  ASP167      0.1805
      3  C          2.2770  -44.8240   44.5850 C.2   167  ASP167      0.2598
      4  O          1.3910  -44.5230   45.3960 O.2   167  ASP167     -0.2718
      5  CB         2.8070  -47.2310   44.0770 C.3   167  ASP167      0.1424
      6  CG         2.5960  -46.9680   42.5960 C.2   167  ASP167      0.3668
      7  OD1        1.4260  -47.0150   42.1590 O.co2 167  ASP167     -0.2456
      8  OD2        3.5980  -46.6820   41.8910 O.co2 167  ASP167     -0.2456
      9  N          2.4980  -44.1420   43.4640 N.am  168  VAL168     -0.1966
     10  CA         1.5870  -43.1010   43.0230 C.3   168  VAL168      0.1727
     11  C          0.9540  -43.6030   41.7340 C.2   168  VAL168      0.2616
     12  O          1.6410  -44.1420   40.8460 O.2   168  VAL168     -0.2715
     13  CB         2.2860  -41.7220   42.8130 C.3   168  VAL168      0.0290
     14  CG1        1.2610  -40.6020   42.7600 C.3   168  VAL168      0.0023
     15  CG2        3.2850  -41.4460   43.9280 C.3   168  VAL168      0.0023
     16  N         -0.3580  -43.4590   41.6400 N.am  169  GLU169     -0.1963
     17  CA        -1.0870  -43.8760   40.4410 C.3   169  GLU169      0.1733
     18  C         -0.3990  -43.2800   39.1960 C.2   169  GLU169      0.2617
     19  O          0.0300  -42.1260   39.2060 O.2   169  GLU169     -0.2715
     20  CB        -2.5570  -43.4580   40.5380 C.3   169  GLU169      0.0429
     21  CG        -2.7970  -41.9790   40.8710 C.3   169  GLU169      0.1163
     22  CD        -4.2970  -41.6020   40.8710 C.2   169  GLU169      0.3649
     23  OE1       -5.1150  -42.4570   40.4520 O.co2 169  GLU169     -0.2457
     24  OE2       -4.6580  -40.4660   41.2780 O.co2 169  GLU169     -0.2457
     25  N         -0.2420  -44.0960   38.1540 N.am  170  GLY170     -0.1940
     26  CA         0.4300  -43.6530   36.9410 C.3   170  GLY170      0.2014
     27  C          1.9270  -43.5340   37.1440 C.2   170  GLY170      0.2639
     28  O          2.5310  -44.3210   37.8840 O.2   170  GLY170     -0.2714
     29  N          2.5330  -42.5440   36.5040 N.am  171  SER171     -0.1949
     30  CA         3.9800  -42.3760   36.5970 C.3   171  SER171      0.1924
     31  C          4.4180  -40.9240   36.6960 C.2   171  SER171      0.2314
     32  O          5.6090  -40.6400   36.7820 O.2   171  SER171     -0.2863
     33  CB         4.7020  -43.0940   35.4460 C.3   171  SER171      0.2116
     34  OG         3.9490  -43.0750   34.2520 O.3   171  SER171     -0.2180
     35  N         -0.9800  -45.5190   46.8330 N.3   178  LEU178     -0.1245
     36  CA        -1.5050  -46.8590   47.0930 C.3   178  LEU178      0.1561
     37  C         -0.3350  -47.8350   47.1090 C.2   178  LEU178      0.2260
     38  O          0.8080  -47.4350   46.8430 O.2   178  LEU178     -0.2867
     39  CB        -2.5140  -47.2430   46.0000 C.3   178  LEU178      0.0270
     40  CG        -2.0480  -47.5460   44.5650 C.3   178  LEU178      0.0019
     41  CD1       -3.1690  -48.2490   43.7720 C.3   178  LEU178      0.0001
     42  CD2       -1.5800  -46.2990   43.8400 C.3   178  LEU178      0.0001
     43  N          1.7930  -50.9150   45.5220 N.3   180  TYR180     -0.1241
     44  CA         2.0080  -51.4850   44.1950 C.3   180  TYR180      0.1605
     45  C          3.3210  -52.2380   44.1160 C.2   180  TYR180      0.2264
     46  O          4.2010  -52.0760   44.9630 O.2   180  TYR180     -0.2867
     47  CB         1.9570  -50.3930   43.1110 C.3   180  TYR180      0.0534
     48  CG         1.5400  -50.9110   41.7430 C.ar  180  TYR180     -0.0201
     49  CD1        0.1920  -51.1000   41.4340 C.ar  180  TYR180     -0.0009
     50  CD2        2.4960  -51.2200   40.7650 C.ar  180  TYR180     -0.0009
     51  CE1       -0.1960  -51.5920   40.1960 C.ar  180  TYR180      0.0417
     52  CE2        2.1160  -51.7040   39.5220 C.ar  180  TYR180      0.0417
     53  CZ         0.7680  -51.8840   39.2470 C.ar  180  TYR180      0.1957
     54  OH         0.3800  -52.3570   38.0190 O.3   180  TYR180     -0.2866
     55  N          8.8740  -50.7040   41.5820 N.3   183  GLU183     -0.1245
     56  CA         9.3420  -50.3630   40.2330 C.3   183  GLU183      0.1567
     57  C         10.4990  -49.3680   40.2150 C.2   183  GLU183      0.2260
     58  O         10.5740  -48.4640   41.0540 O.2   183  GLU183     -0.2867
     59  CB         8.1900  -49.8200   39.3860 C.3   183  GLU183      0.0388
     60  CG         7.1480  -50.8610   39.0600 C.3   183  GLU183      0.1160
     61  CD         5.8740  -50.2830   38.4830 C.2   183  GLU183      0.3649
     62  OE1        5.6890  -49.0420   38.5110 O.co2 183  GLU183     -0.2457
     63  OE2        5.0410  -51.0880   38.0070 O.co2 183  GLU183     -0.2457
     64  N         11.0890  -46.7240   38.9520 N.3   185  ASN185     -0.1240
     65  CA        10.4920  -45.4980   38.4360 C.3   185  ASN185      0.1653
     66  C         10.5090  -44.4020   39.4890 C.2   185  ASN185      0.2266
     67  O         10.2760  -44.6720   40.6650 O.2   185  ASN185     -0.2867
     68  CB         9.0660  -45.7600   37.9170 C.3   185  ASN185      0.1155
     69  CG         9.0420  -46.7030   36.6950 C.2   185  ASN185      0.2627
     70  OD1        8.0760  -47.4560   36.4740 O.2   185  ASN185     -0.2716
     71  ND2       10.1220  -46.6780   35.9090 N.am  185  ASN185     -0.0877
     72  N          8.5730  -42.1200   40.4480 N.3   187  ASP187     -0.1239
     73  CA         7.3680  -41.8140   41.2210 C.3   187  ASP187      0.1674
     74  C          7.2370  -42.6490   42.4990 C.2   187  ASP187      0.2266
     75  O          6.3510  -42.3950   43.3130 O.2   187  ASP187     -0.2867
     76  CB         6.1150  -41.9480   40.3500 C.3   187  ASP187      0.1410
     77  CG         5.7580  -43.3920   40.0580 C.2   187  ASP187      0.3668
     78  OD1        6.6660  -44.2050   39.7850 O.co2 187  ASP187     -0.2456
     79  OD2        4.5620  -43.7310   40.1250 O.co2 187  ASP187     -0.2456
@<TRIPOS>BOND
     1    34    33    1
     2    33    30    1
     3    71    69   am
     4    70    69    2
     5    29    30    1
     6    29    27   am
     7    30    31    1
     8    69    68    1
     9    31    32    2
    10    26    27    1
    11    26    25    1
    12    27    28    2
    13    68    65    1
    14    63    61   ar
    15    54    53    1
    16    25    18   am
    17    65    64    1
    18    65    66    1
    19    61    62   ar
    20    61    60    1
    21    60    59    1
    22    18    19    2
    23    18    17    1
    24    53    52   ar
    25    53    51   ar
    26    59    56    1
    27    66    67    2
    28    52    50   ar
    29    78    77   ar
    30    77    79   ar
    31    77    76    1
    32    51    49   ar
    33    57    56    1
    34    57    58    2
    35    56    55    1
    36    76    73    1
    37    17    20    1
    38    17    16    1
    39    72    73    1
    40    23    22   ar
    41    20    21    1
    42    50    48   ar
    43    12    11    2
    44    22    21    1
    45    22    24   ar
    46    73    74    1
    47    49    48   ar
    48    16    11   am
    49    11    10    1
    50    48    47    1
    51     8     6   ar
    52     7     6   ar
    53    74    75    2
    54     6     5    1
    55    14    13    1
    56    13    10    1
    57    13    15    1
    58    10     9    1
    59    47    44    1
    60     9     3   am
    61    41    40    1
    62    42    40    1
    63     5     2    1
    64    45    44    1
    65    45    46    2
    66    44    43    1
    67    40    39    1
    68     3     2    1
    69     3     4    2
    70     2     1    1
    71    39    36    1
    72    35    36    1
    73    38    37    2
    74    36    37    1
