@<TRIPOS>MOLECULE
tmp/2z4bB00.pdb
 185 174 0 0 0
SMALL
GASTEIGER

@<TRIPOS>ATOM
      1  N         98.7240   34.9750   45.1180 N.3    30  MET30      -0.1245
      2  CA        97.3870   35.5360   45.2430 C.3    30  MET30       0.1570
      3  C         96.8500   36.0420   43.9100 C.2    30  MET30       0.2261
      4  O         95.6390   36.1410   43.7160 O.2    30  MET30      -0.2867
      5  CB        97.4010   36.6710   46.2620 C.3    30  MET30       0.0387
      6  CG        97.9240   36.2330   47.6130 C.3    30  MET30       0.0595
      7  SD        97.0840   34.7500   48.2070 S.3    30  MET30      -0.1393
      8  CE        95.5040   35.4790   48.5400 C.3    30  MET30       0.0692
      9  N         95.7190   32.4620   42.3020 N.3    33  LEU33      -0.1231
     10  CA        94.4900   31.9740   42.9170 C.3    33  LEU33       0.1693
     11  C         93.3190   32.8070   42.4490 C.2    33  LEU33       0.2592
     12  O         92.2510   32.2840   42.1330 O.2    33  LEU33      -0.2718
     13  CB        94.5890   32.0430   44.4410 C.3    33  LEU33       0.0284
     14  CG        95.6190   31.0720   45.0200 C.3    33  LEU33       0.0019
     15  CD1       95.7010   31.2350   46.5340 C.3    33  LEU33       0.0001
     16  CD2       95.2410   29.6490   44.6360 C.3    33  LEU33       0.0001
     17  N         93.5340   34.1130   42.3870 N.am   34  THR34      -0.1953
     18  CA        92.5000   35.0310   41.9640 C.3    34  THR34       0.1897
     19  C         92.1220   34.8760   40.4870 C.2    34  THR34       0.2313
     20  O         90.9480   34.9430   40.1290 O.2    34  THR34      -0.2863
     21  CB        92.9400   36.4630   42.2280 C.3    34  THR34       0.1794
     22  OG1       93.1870   36.6270   43.6280 O.3    34  THR34      -0.2208
     23  CG2       91.8640   37.4130   41.8400 C.3    34  THR34       0.0378
     24  N         92.5000   32.1840   38.8230 N.3    36  LEU36      -0.1231
     25  CA        91.8870   30.8570   38.7700 C.3    36  LEU36       0.1693
     26  C         90.4190   30.9230   39.1590 C.2    36  LEU36       0.2591
     27  O         89.5540   30.4310   38.4340 O.2    36  LEU36      -0.2718
     28  CB        92.6050   29.8980   39.7160 C.3    36  LEU36       0.0284
     29  CG        92.0150   28.4880   39.8240 C.3    36  LEU36       0.0019
     30  CD1       92.0390   27.8180   38.4670 C.3    36  LEU36       0.0001
     31  CD2       92.8050   27.6700   40.8370 C.3    36  LEU36       0.0001
     32  N         90.1520   31.5310   40.3120 N.am   37  ALA37      -0.1980
     33  CA        88.7900   31.6670   40.8100 C.3    37  ALA37       0.1597
     34  C         87.9050   32.2740   39.7330 C.2    37  ALA37       0.2287
     35  O         86.7910   31.8030   39.4910 O.2    37  ALA37      -0.2864
     36  CB        88.7660   32.5410   42.0630 C.3    37  ALA37       0.0319
     37  N         87.1460   29.7720   37.1070 N.3    40  GLU40      -0.1245
     38  CA        86.3160   28.6950   37.6290 C.3    40  GLU40       0.1567
     39  C         84.8740   29.1570   37.7500 C.2    40  GLU40       0.2260
     40  O         83.9370   28.3880   37.5230 O.2    40  GLU40      -0.2867
     41  CB        86.8230   28.2520   38.9990 C.3    40  GLU40       0.0388
     42  CG        88.0620   27.3970   38.9380 C.3    40  GLU40       0.1160
     43  CD        88.4850   26.8910   40.2970 C.2    40  GLU40       0.3649
     44  OE1       88.1650   25.7340   40.6510 O.co2  40  GLU40      -0.2457
     45  OE2       89.1450   27.6650   41.0200 O.co2  40  GLU40      -0.2457
     46  N         79.6630   30.8170   46.0010 N.3    70  TRP70      -0.1227
     47  CA        80.6550   30.4890   44.9930 C.3    70  TRP70       0.1737
     48  C         81.9530   30.0400   45.6140 C.2    70  TRP70       0.2595
     49  O         82.5850   29.1020   45.1370 O.2    70  TRP70      -0.2718
     50  CB        80.9090   31.6640   44.0300 C.3    70  TRP70       0.0564
     51  CG        81.3730   32.9360   44.6530 C.ar   70  TRP70       0.0003
     52  CD1       80.5850   33.9350   45.1390 C.ar   70  TRP70       0.0946
     53  CD2       82.7310   33.3670   44.8370 C.ar   70  TRP70       0.0152
     54  NE1       81.3630   34.9610   45.6150 N.ar   70  TRP70      -0.2442
     55  CE2       82.6830   34.6370   45.4450 C.ar   70  TRP70       0.0810
     56  CE3       83.9810   32.8010   44.5540 C.ar   70  TRP70       0.0012
     57  CZ2       83.8340   35.3560   45.7750 C.ar   70  TRP70       0.0191
     58  CZ3       85.1330   33.5220   44.8850 C.ar   70  TRP70       0.0001
     59  CH2       85.0460   34.7820   45.4900 C.ar   70  TRP70       0.0015
     60  N         82.3450   30.7100   46.6840 N.am   71  MET71      -0.1979
     61  CA        83.5780   30.3890   47.3780 C.3    71  MET71       0.1605
     62  C         83.5110   28.9940   48.0130 C.2    71  MET71       0.2287
     63  O         84.4730   28.2280   47.9220 O.2    71  MET71      -0.2864
     64  CB        83.8640   31.4320   48.4610 C.3    71  MET71       0.0413
     65  CG        85.1940   31.2050   49.1610 C.3    71  MET71       0.0598
     66  SD        86.6500   31.6030   48.1380 S.3    71  MET71      -0.1393
     67  CE        87.3130   33.0030   48.9800 C.3    71  MET71       0.0692
     68  N         83.8220   26.3630   45.1810 N.3    74  LEU74      -0.1231
     69  CA        85.2240   26.3150   44.7680 C.3    74  LEU74       0.1693
     70  C         86.0530   25.5090   45.7670 C.2    74  LEU74       0.2591
     71  O         86.8350   24.6400   45.3800 O.2    74  LEU74      -0.2718
     72  CB        85.8070   27.7350   44.6410 C.3    74  LEU74       0.0284
     73  CG        85.2900   28.6070   43.4880 C.3    74  LEU74       0.0019
     74  CD1       86.1240   29.8780   43.3810 C.3    74  LEU74       0.0001
     75  CD2       85.3500   27.8410   42.1970 C.3    74  LEU74       0.0001
     76  N         85.8670   25.7870   47.0540 N.am   75  MET75      -0.1979
     77  CA        86.6350   25.1030   48.0740 C.3    75  MET75       0.1605
     78  C         86.2130   23.6440   48.2090 C.2    75  MET75       0.2287
     79  O         87.0340   22.7750   48.5160 O.2    75  MET75      -0.2864
     80  CB        86.4860   25.8170   49.4150 C.3    75  MET75       0.0413
     81  CG        87.2290   27.1350   49.4800 C.3    75  MET75       0.0598
     82  SD        86.9700   27.9450   51.0290 S.3    75  MET75      -0.1393
     83  CE        88.3610   29.2210   51.0180 C.3    75  MET75       0.0692
     84  N         88.1560   22.0840   45.4850 N.3    78  LEU78      -0.1245
     85  CA        89.5400   21.9650   45.9220 C.3    78  LEU78       0.1561
     86  C         89.7320   20.7620   46.8520 C.2    78  LEU78       0.2260
     87  O         90.6620   19.9620   46.6880 O.2    78  LEU78      -0.2867
     88  CB        89.9580   23.2340   46.6590 C.3    78  LEU78       0.0270
     89  CG        91.3770   23.2380   47.2280 C.3    78  LEU78       0.0019
     90  CD1       92.4010   23.0940   46.1230 C.3    78  LEU78       0.0001
     91  CD2       91.5840   24.5440   47.9950 C.3    78  LEU78       0.0001
     92  N         89.5320   17.3490   44.9090 N.3    81  ARG81      -0.1245
     93  CA        90.6750   16.9270   44.1150 C.3    81  ARG81       0.1563
     94  C         91.9800   16.8840   44.8950 C.2    81  ARG81       0.2260
     95  O         92.9730   16.3800   44.3750 O.2    81  ARG81      -0.2867
     96  CB        90.8480   17.7740   42.8440 C.3    81  ARG81       0.0307
     97  CG        90.7300   19.2480   43.0010 C.3    81  ARG81       0.0489
     98  CD        90.7180   19.9990   41.6350 C.3    81  ARG81       0.2205
     99  NE        90.8220   21.4260   41.9320 N.pl3  81  ARG81      -0.0865
    100  CZ        89.7900   22.2520   42.0290 C.cat  81  ARG81       0.5346
    101  NH1       88.5640   21.8010   41.8120 N.pl3  81  ARG81       0.1354
    102  NH2       89.9780   23.5080   42.4460 N.pl3  81  ARG81       0.1354
    103  N         94.8160   22.9940   43.5550 N.3    91  PHE91      -0.1241
    104  CA        93.9330   24.0520   43.0540 C.3    91  PHE91       0.1605
    105  C         93.5810   23.9020   41.5690 C.2    91  PHE91       0.2264
    106  O         92.4860   24.2770   41.1300 O.2    91  PHE91      -0.2867
    107  CB        94.5930   25.4190   43.2700 C.3    91  PHE91       0.0534
    108  CG        94.4990   25.9230   44.6740 C.ar   91  PHE91      -0.0203
    109  CD1       93.3950   26.6350   45.0890 C.ar   91  PHE91      -0.0042
    110  CD2       95.5100   25.6770   45.5790 C.ar   91  PHE91      -0.0042
    111  CE1       93.2950   27.0940   46.3890 C.ar   91  PHE91      -0.0003
    112  CE2       95.4240   26.1300   46.8790 C.ar   91  PHE91      -0.0003
    113  CZ        94.3180   26.8380   47.2900 C.ar   91  PHE91      -0.0000
    114  N         96.9380   33.5940   54.9380 N.3   108  ILE108     -0.1245
    115  CA        96.5830   32.4640   54.1030 C.3   108  ILE108      0.1561
    116  C         96.8730   31.1330   54.7830 C.2   108  ILE108      0.2260
    117  O         96.1220   30.1700   54.6120 O.2   108  ILE108     -0.2867
    118  CB        97.3350   32.5140   52.7580 C.3   108  ILE108      0.0252
    119  CG1       96.7660   33.6400   51.8890 C.3   108  ILE108      0.0019
    120  CG2       97.2600   31.1620   52.0650 C.3   108  ILE108      0.0019
    121  CD1       95.2980   33.4910   51.5680 C.3   108  ILE108      0.0001
    122  N         93.9590   29.6410   56.6120 N.3   111  ILE111     -0.1231
    123  CA        92.9520   29.1150   55.7040 C.3   111  ILE111      0.1692
    124  C         93.3710   27.7650   55.1020 C.2   111  ILE111      0.2592
    125  O         92.5760   26.8230   55.0550 O.2   111  ILE111     -0.2718
    126  CB        92.6820   30.1270   54.5900 C.3   111  ILE111      0.0266
    127  CG1       92.2940   31.4700   55.2230 C.3   111  ILE111      0.0019
    128  CG2       91.5970   29.6080   53.6580 C.3   111  ILE111      0.0020
    129  CD1       91.9670   32.5730   54.2170 C.3   111  ILE111      0.0001
    130  N         94.6220   27.6640   54.6620 N.am  112  PHE112     -0.1976
    131  CA        95.1300   26.4040   54.1250 C.3   112  PHE112      0.1639
    132  C         94.9470   25.3030   55.1500 C.2   112  PHE112      0.2290
    133  O         94.6390   24.1600   54.8010 O.2   112  PHE112     -0.2864
    134  CB        96.6140   26.5130   53.7700 C.3   112  PHE112      0.0560
    135  CG        96.8660   27.1060   52.4240 C.ar  112  PHE112     -0.0200
    136  CD1       95.8760   27.8290   51.7850 C.ar  112  PHE112     -0.0042
    137  CD2       98.0790   26.9380   51.7920 C.ar  112  PHE112     -0.0042
    138  CE1       96.0820   28.3760   50.5370 C.ar  112  PHE112     -0.0003
    139  CE2       98.2960   27.4830   50.5430 C.ar  112  PHE112     -0.0003
    140  CZ        97.2910   28.2040   49.9130 C.ar  112  PHE112     -0.0000
    141  N         91.3510   24.2180   55.2090 N.3   115  LEU115     -0.1245
    142  CA        91.1040   23.4470   53.9960 C.3   115  LEU115      0.1561
    143  C         91.7160   22.0570   54.0990 C.2   115  LEU115      0.2260
    144  O         91.0660   21.0590   53.7920 O.2   115  LEU115     -0.2867
    145  CB        91.6830   24.1750   52.7750 C.3   115  LEU115      0.0270
    146  CG        91.0030   25.5220   52.4790 C.3   115  LEU115      0.0019
    147  CD1       91.7040   26.2590   51.3430 C.3   115  LEU115      0.0001
    148  CD2       89.5400   25.2700   52.1340 C.3   115  LEU115      0.0001
    149  N         87.9850   32.7520   53.8190 N.3   200  GLY200     -0.1225
    150  CA        88.5790   33.0570   52.5340 C.3   200  GLY200      0.1811
    151  C         87.9760   34.2890   51.9030 C.2   200  GLY200      0.2280
    152  O         88.6690   35.0330   51.2140 O.2   200  GLY200     -0.2866
    153  N         89.3860   37.3120   53.8250 N.3   203  HIS203     -0.1226
    154  CA        90.7770   37.5420   53.4800 C.3   203  HIS203      0.1752
    155  C         90.8460   38.1880   52.1040 C.2   203  HIS203      0.2595
    156  O         91.6570   39.0700   51.8480 O.2   203  HIS203     -0.2718
    157  CB        91.5560   36.2220   53.4760 C.3   203  HIS203      0.0759
    158  CG        93.0000   36.3800   53.1180 C.ar  203  HIS203      0.0818
    159  ND1       93.4200   36.7740   51.8630 N.ar  203  HIS203     -0.2268
    160  CD2       94.1230   36.2310   53.8600 C.ar  203  HIS203      0.1154
    161  CE1       94.7380   36.8640   51.8510 C.ar  203  HIS203      0.1986
    162  NE2       95.1890   36.5390   53.0510 N.ar  203  HIS203     -0.2212
    163  N         89.9750   37.7410   51.2190 N.am  204  LEU204     -0.1980
    164  CA        89.9230   38.2670   49.8720 C.3   204  LEU204      0.1596
    165  C         89.5340   39.7470   49.8620 C.2   204  LEU204      0.2287
    166  O         89.9830   40.5150   49.0060 O.2   204  LEU204     -0.2864
    167  CB        88.9170   37.4640   49.0520 C.3   204  LEU204      0.0297
    168  CG        88.6570   38.0170   47.6540 C.3   204  LEU204      0.0022
    169  CD1       89.9190   37.8850   46.8290 C.3   204  LEU204      0.0001
    170  CD2       87.5270   37.2720   46.9880 C.3   204  LEU204      0.0001
    171  N         92.1380   42.5130   50.8670 N.3   207  MET207     -0.1245
    172  CA        93.2900   42.5020   49.9740 C.3   207  MET207      0.1570
    173  C         93.4810   43.7940   49.2010 C.2   207  MET207      0.2261
    174  O         92.5170   44.4180   48.7550 O.2   207  MET207     -0.2867
    175  CB        93.2130   41.3230   49.0010 C.3   207  MET207      0.0387
    176  CG        93.7530   40.0210   49.5750 C.3   207  MET207      0.0595
    177  SD        95.4740   40.1330   50.1830 S.3   207  MET207     -0.1393
    178  CE        95.2290   40.1580   52.0090 C.3   207  MET207      0.0692
    179  N         87.7120   39.3870   41.7660 N.3   211  VAL211     -0.1245
    180  CA        86.8800   38.2350   41.4580 C.3   211  VAL211      0.1561
    181  C         85.4020   38.5810   41.6450 C.2   211  VAL211      0.2260
    182  O         84.5700   38.2880   40.7770 O.2   211  VAL211     -0.2867
    183  CB        87.2480   37.0260   42.3460 C.3   211  VAL211      0.0252
    184  CG1       86.5080   35.7830   41.8730 C.3   211  VAL211      0.0019
    185  CG2       88.7350   36.7880   42.2910 C.3   211  VAL211      0.0019
@<TRIPOS>BOND
     1    37    38    1
     2    40    39    2
     3    38    39    1
     4    38    41    1
     5    27    26    2
     6    30    29    1
     7    25    24    1
     8    25    26    1
     9    25    28    1
    10    42    41    1
    11    42    43    1
    12    26    32   am
    13    35    34    2
    14    28    29    1
    15    34    33    1
    16    29    31    1
    17    20    19    2
    18    43    44   ar
    19    43    45   ar
    20    32    33    1
    21    19    18    1
    22   182   181    2
    23    33    36    1
    24   106   105    2
    25   180   181    1
    26   180   179    1
    27   180   183    1
    28   105   104    1
    29    98    99    1
    30    98    97    1
    31   101   100    1
    32    23    21    1
    33   184   183    1
    34    99   100    2
    35    18    21    1
    36    18    17    1
    37   100   102    1
    38    12    11    2
    39    75    73    1
    40    21    22    1
    41   185   183    1
    42     9    10    1
    43    17    11   am
    44    11    10    1
    45    96    97    1
    46    96    93    1
    47    10    13    1
    48   104   107    1
    49   104   103    1
    50   107   108    1
    51    74    73    1
    52    73    72    1
    53     4     3    2
    54     3     2    1
    55    50    51    1
    56    50    47    1
    57    93    94    1
    58    93    92    1
    59    95    94    2
    60    13    14    1
    61    56    53   ar
    62    56    58   ar
    63    16    14    1
    64    72    69    1
    65    51    53   ar
    66    51    52   ar
    67   108   109   ar
    68   108   110   ar
    69    69    68    1
    70    69    70    1
    71    53    55   ar
    72    58    59   ar
    73    47    48    1
    74    47    46    1
    75    14    15    1
    76   109   111   ar
    77     1     2    1
    78    49    48    2
    79    52    54   ar
    80     2     5    1
    81    71    70    2
    82    55    54   ar
    83    55    57   ar
    84    84    85    1
    85    59    57   ar
    86   110   112   ar
    87    48    60   am
    88    70    76   am
    89    85    88    1
    90    85    86    1
    91    90    89    1
    92     5     6    1
    93   111   113   ar
    94    88    89    1
    95    60    61    1
    96    87    86    2
    97   169   168    1
    98   112   113   ar
    99   170   168    1
   100    76    77    1
   101    89    91    1
   102    61    62    1
   103    61    64    1
   104     6     7    1
   105   168   167    1
   106    63    62    2
   107    77    78    1
   108    77    80    1
   109    66    67    1
   110    66    65    1
   111     7     8    1
   112    78    79    2
   113    64    65    1
   114   174   173    2
   115   175   176    1
   116   175   172    1
   117   166   165    2
   118   167   164    1
   119   173   172    1
   120    80    81    1
   121    81    82    1
   122   176   177    1
   123   165   164    1
   124   164   163    1
   125   140   138   ar
   126   140   139   ar
   127   172   171    1
   128   177   178    1
   129   138   136   ar
   130   139   137   ar
   131    83    82    1
   132   152   151    2
   133   163   155   am
   134   147   146    1
   135   121   119    1
   136   136   135   ar
   137   137   135   ar
   138   156   155    2
   139   161   159   ar
   140   161   162   ar
   141   159   158   ar
   142   119   118    1
   143   151   150    1
   144   120   118    1
   145   155   154    1
   146   148   146    1
   147   135   134    1
   148   146   145    1
   149   150   149    1
   150   118   115    1
   151   145   142    1
   152   162   160   ar
   153   158   157    1
   154   158   160   ar
   155   157   154    1
   156   154   153    1
   157   128   126    1
   158   134   131    1
   159   144   143    2
   160   142   143    1
   161   142   141    1
   162   115   116    1
   163   115   114    1
   164   131   130    1
   165   131   132    1
   166   129   127    1
   167   126   127    1
   168   126   123    1
   169   117   116    2
   170   130   124   am
   171   133   132    2
   172   125   124    2
   173   124   123    1
   174   123   122    1
