@<TRIPOS>MOLECULE
tmp/2z4jA00.pdb
 163 153 0 0 0
SMALL
GASTEIGER

@<TRIPOS>ATOM
      1  N        -33.2520   27.0240    6.8520 N.3    39  GLU39      -0.1245
      2  CA       -34.2850   26.4440    7.7160 C.3    39  GLU39       0.1567
      3  C        -34.1260   24.9290    7.8930 C.2    39  GLU39       0.2260
      4  O        -34.3850   24.4040    8.9710 O.2    39  GLU39      -0.2867
      5  CB       -35.6780   26.7250    7.1490 C.3    39  GLU39       0.0388
      6  CG       -36.7960   25.9610    7.8490 C.3    39  GLU39       0.1160
      7  CD       -37.5470   26.8070    8.8620 C.2    39  GLU39       0.3649
      8  OE1      -36.8780   27.4720    9.6840 O.co2  39  GLU39      -0.2457
      9  OE2      -38.8060   26.8000    8.8430 O.co2  39  GLU39      -0.2457
     10  N        -31.0610   24.0260    9.8800 N.3    42  LEU42      -0.1231
     11  CA       -31.2740   24.4270   11.2670 C.3    42  LEU42       0.1693
     12  C        -31.8310   23.2600   12.0730 C.2    42  LEU42       0.2591
     13  O        -31.5360   23.1080   13.2650 O.2    42  LEU42      -0.2718
     14  CB       -32.2200   25.6270   11.3460 C.3    42  LEU42       0.0284
     15  CG       -32.2640   26.3560   12.7000 C.3    42  LEU42       0.0019
     16  CD1      -30.8500   26.6340   13.2130 C.3    42  LEU42       0.0001
     17  CD2      -33.0270   27.6640   12.5540 C.3    42  LEU42       0.0001
     18  N        -32.6310   22.4260   11.4160 N.am   43  VAL43      -0.1980
     19  CA       -33.2160   21.2770   12.0800 C.3    43  VAL43       0.1595
     20  C        -32.1210   20.3160   12.5090 C.2    43  VAL43       0.2287
     21  O        -32.0770   19.8850   13.6610 O.2    43  VAL43      -0.2864
     22  CB       -34.1980   20.5450   11.1550 C.3    43  VAL43       0.0276
     23  CG1      -34.5460   19.1660   11.7440 C.3    43  VAL43       0.0022
     24  CG2      -35.4570   21.4000   10.9760 C.3    43  VAL43       0.0022
     25  N        -29.9820   21.4730   15.5770 N.3    46  VAL46      -0.1231
     26  CA       -30.6230   21.2130   16.8690 C.3    46  VAL46       0.1692
     27  C        -30.4690   19.7520   17.2840 C.2    46  VAL46       0.2591
     28  O        -30.1880   19.4720   18.4500 O.2    46  VAL46      -0.2718
     29  CB       -32.1490   21.5780   16.8400 C.3    46  VAL46       0.0266
     30  CG1      -32.8010   21.2710   18.1780 C.3    46  VAL46       0.0020
     31  CG2      -32.3270   23.0510   16.5040 C.3    46  VAL46       0.0020
     32  N        -30.6480   18.8220   16.3480 N.am   47  LYS47      -0.1980
     33  CA       -30.5010   17.3960   16.6720 C.3    47  LYS47       0.1596
     34  C        -29.0360   17.0480   16.8870 C.2    47  LYS47       0.2287
     35  O        -28.6970   16.2470   17.7550 O.2    47  LYS47      -0.2864
     36  CB       -31.0510   16.5070   15.5580 C.3    47  LYS47       0.0298
     37  CG       -32.5230   16.6860   15.2740 C.3    47  LYS47       0.0038
     38  CD       -32.9470   15.7600   14.1500 C.3    47  LYS47       0.0206
     39  CE       -34.3650   16.0540   13.6770 C.3    47  LYS47       0.1093
     40  NZ       -34.7400   15.1510   12.5420 N.3    47  LYS47      -0.1314
     41  N        -27.8840   18.6770   20.4060 N.3    50  LYS50      -0.1245
     42  CA       -28.4170   17.9840   21.5780 C.3    50  LYS50       0.1561
     43  C        -27.7710   16.6320   21.8510 C.2    50  LYS50       0.2260
     44  O        -27.8500   16.1140   22.9670 O.2    50  LYS50      -0.2867
     45  CB       -29.9130   17.7670   21.4090 C.3    50  LYS50       0.0271
     46  CG       -30.7960   18.8020   22.0490 C.3    50  LYS50       0.0035
     47  CD       -32.1940   18.6930   21.4620 C.3    50  LYS50       0.0206
     48  CE       -32.5760   17.2370   21.1900 C.3    50  LYS50       0.1093
     49  NZ       -33.7230   17.1110   20.2430 N.3    50  LYS50      -0.1314
     50  N        -23.9940   18.2840   26.5500 N.3    55  PHE55      -0.1227
     51  CA       -24.8400   19.3940   26.1270 C.3    55  PHE55       0.1736
     52  C        -26.1380   19.5450   26.9170 C.2    55  PHE55       0.2595
     53  O        -26.5020   20.6510   27.3050 O.2    55  PHE55      -0.2718
     54  CB       -25.1930   19.2590   24.6430 C.3    55  PHE55       0.0547
     55  CG       -25.9130   20.4510   24.0880 C.ar   55  PHE55      -0.0202
     56  CD1      -25.2070   21.6040   23.7420 C.ar   55  PHE55      -0.0042
     57  CD2      -27.3030   20.4500   23.9530 C.ar   55  PHE55      -0.0042
     58  CE1      -25.8680   22.7520   23.2690 C.ar   55  PHE55      -0.0003
     59  CE2      -27.9800   21.5950   23.4820 C.ar   55  PHE55      -0.0003
     60  CZ       -27.2530   22.7500   23.1380 C.ar   55  PHE55      -0.0000
     61  N        -26.8540   18.4430   27.1310 N.am   56  ARG56      -0.1980
     62  CA       -28.1250   18.4820   27.8640 C.3    56  ARG56       0.1597
     63  C        -27.9240   18.8680   29.3350 C.2    56  ARG56       0.2287
     64  O        -28.8760   18.9400   30.1130 O.2    56  ARG56      -0.2864
     65  CB       -28.8230   17.1250   27.7730 C.3    56  ARG56       0.0334
     66  CG       -28.7040   16.4680   26.4060 C.3    56  ARG56       0.0492
     67  CD       -30.0350   15.9210   25.9480 C.3    56  ARG56       0.2205
     68  NE       -31.0420   16.9770   25.9380 N.pl3  56  ARG56      -0.0865
     69  CZ       -32.2690   16.8400   25.4470 C.cat  56  ARG56       0.5346
     70  NH1      -32.6420   15.6810   24.9190 N.pl3  56  ARG56       0.1354
     71  NH2      -33.1230   17.8620   25.4830 N.pl3  56  ARG56       0.1354
     72  N        -31.9750   24.0950   29.8840 N.3    60  VAL60      -0.1231
     73  CA       -32.7430   24.0500   28.6470 C.3    60  VAL60       0.1692
     74  C        -32.8600   25.3880   27.9280 C.2    60  VAL60       0.2592
     75  O        -32.9520   25.4250   26.7010 O.2    60  VAL60      -0.2718
     76  CB       -34.1630   23.4750   28.8740 C.3    60  VAL60       0.0266
     77  CG1      -34.9840   24.4210   29.7240 C.3    60  VAL60       0.0020
     78  CG2      -34.8420   23.2280   27.5320 C.3    60  VAL60       0.0020
     79  N        -32.8560   26.4840   28.6850 N.am   61  ASP61      -0.1974
     80  CA       -32.9450   27.8250   28.0970 C.3    61  ASP61       0.1709
     81  C        -31.6380   28.2830   27.4480 C.2    61  ASP61       0.2293
     82  O        -31.6500   28.9580   26.4190 O.2    61  ASP61      -0.2864
     83  CB       -33.3800   28.8380   29.1520 C.3    61  ASP61       0.1436
     84  CG       -34.8770   29.0150   29.1870 C.2    61  ASP61       0.3671
     85  OD1      -35.3910   29.5700   30.1850 O.co2  61  ASP61      -0.2456
     86  OD2      -35.5350   28.6020   28.2030 O.co2  61  ASP61      -0.2456
     87  N        -29.7250   26.3440   26.1260 N.3    63  GLN63      -0.1231
     88  CA       -29.5700   25.4380   24.9990 C.3    63  GLN63       0.1698
     89  C        -30.1660   26.0910   23.7650 C.2    63  GLN63       0.2592
     90  O        -29.6670   25.8940   22.6610 O.2    63  GLN63      -0.2718
     91  CB       -30.2620   24.1120   25.2870 C.3    63  GLN63       0.0381
     92  CG       -29.5640   23.2760   26.3320 C.3    63  GLN63       0.0905
     93  CD       -30.2590   21.9550   26.5460 C.2    63  GLN63       0.2608
     94  OE1      -31.2520   21.6600   25.8800 O.2    63  GLN63      -0.2717
     95  NE2      -29.7440   21.1480   27.4740 N.am   63  GLN63      -0.0878
     96  N        -31.2420   26.8560   23.9610 N.am   64  MET64      -0.1979
     97  CA       -31.8840   27.5900   22.8690 C.3    64  MET64       0.1605
     98  C        -30.9850   28.7630   22.5220 C.2    64  MET64       0.2287
     99  O        -30.6190   28.9540   21.3660 O.2    64  MET64      -0.2864
    100  CB       -33.2520   28.1320   23.2950 C.3    64  MET64       0.0413
    101  CG       -34.4110   27.3840   22.6970 C.3    64  MET64       0.0598
    102  SD       -34.1310   25.6170   22.8990 S.3    64  MET64      -0.1393
    103  CE       -33.3710   25.2280   21.3300 C.3    64  MET64       0.0692
    104  N        -27.6880   27.7860   20.6840 N.3    67  ILE67      -0.1231
    105  CA       -27.9880   27.3370   19.3300 C.3    67  ILE67       0.1692
    106  C        -28.4330   28.5180   18.4530 C.2    67  ILE67       0.2591
    107  O        -27.9360   28.6940   17.3360 O.2    67  ILE67      -0.2718
    108  CB       -29.0980   26.2600   19.3240 C.3    67  ILE67       0.0266
    109  CG1      -28.5010   24.8930   19.6610 C.3    67  ILE67       0.0019
    110  CG2      -29.8120   26.2620   17.9850 C.3    67  ILE67       0.0020
    111  CD1      -29.5240   23.8730   20.0830 C.3    67  ILE67       0.0001
    112  N        -29.3560   29.3270   18.9730 N.am   68  GLN68      -0.1979
    113  CA       -29.8930   30.4740   18.2470 C.3    68  GLN68       0.1601
    114  C        -28.8840   31.5590   17.9060 C.2    68  GLN68       0.2287
    115  O        -29.0410   32.2760   16.9210 O.2    68  GLN68      -0.2864
    116  CB       -31.0170   31.1150   19.0450 C.3    68  GLN68       0.0394
    117  CG       -32.3200   30.3390   19.0550 C.3    68  GLN68       0.0908
    118  CD       -33.3590   30.9980   19.9550 C.2    68  GLN68       0.2608
    119  OE1      -34.5310   31.1070   19.5940 O.2    68  GLN68      -0.2717
    120  NE2      -32.9270   31.4420   21.1340 N.am   68  GLN68      -0.0878
    121  N        -40.4000   30.0060    8.5300 N.3   223  GLU223     -0.1231
    122  CA       -40.9460   30.5220    9.7810 C.3   223  GLU223      0.1699
    123  C        -39.9680   30.6090   10.9590 C.2   223  GLU223      0.2592
    124  O        -40.0270   31.5650   11.7380 O.2   223  GLU223     -0.2718
    125  CB       -42.1720   29.7000   10.1780 C.3   223  GLU223      0.0402
    126  CG       -42.9620   29.1570    8.9840 C.3   223  GLU223      0.1161
    127  CD       -42.1370   28.1990    8.1220 C.2   223  GLU223      0.3649
    128  OE1      -41.2090   27.5520    8.6650 O.co2 223  GLU223     -0.2457
    129  OE2      -42.4170   28.0850    6.9080 O.co2 223  GLU223     -0.2457
    130  N        -39.0930   29.6170   11.1150 N.am  224  MET224     -0.1979
    131  CA       -38.1120   29.6620   12.1990 C.3   224  MET224      0.1605
    132  C        -37.0370   30.6850   11.8400 C.2   224  MET224      0.2287
    133  O        -36.3770   31.2430   12.7140 O.2   224  MET224     -0.2864
    134  CB       -37.4340   28.3090   12.3950 C.3   224  MET224      0.0413
    135  CG       -38.3260   27.1970   12.8800 C.3   224  MET224      0.0598
    136  SD       -37.3040   25.8300   13.4380 S.3   224  MET224     -0.1393
    137  CE       -36.5970   25.3280   11.8530 C.3   224  MET224      0.0692
    138  N        -38.2640   34.1680   12.2740 N.3   227  GLU227     -0.1231
    139  CA       -38.4180   34.2520   13.7160 C.3   227  GLU227      0.1699
    140  C        -37.1010   34.5700   14.4200 C.2   227  GLU227      0.2592
    141  O        -37.0240   35.4800   15.2460 O.2   227  GLU227     -0.2718
    142  CB       -38.9970   32.9300   14.2310 C.3   227  GLU227      0.0402
    143  CG       -38.9590   32.7280   15.7360 C.3   227  GLU227      0.1161
    144  CD       -39.5220   33.9020   16.5110 C.2   227  GLU227      0.3649
    145  OE1      -40.1820   34.7660   15.8900 O.co2 227  GLU227     -0.2457
    146  OE2      -39.3080   33.9550   17.7470 O.co2 227  GLU227     -0.2457
    147  N        -36.0670   33.8160   14.0770 N.am  228  ILE228     -0.1980
    148  CA       -34.7540   33.9730   14.6740 C.3   228  ILE228      0.1595
    149  C        -34.0070   35.2450   14.2570 C.2   228  ILE228      0.2287
    150  O        -33.2860   35.8350   15.0690 O.2   228  ILE228     -0.2864
    151  CB       -33.9020   32.7310   14.3560 C.3   228  ILE228      0.0276
    152  CG1      -34.3380   31.5710   15.2530 C.3   228  ILE228      0.0022
    153  CG2      -32.4330   33.0260   14.5420 C.3   228  ILE228      0.0022
    154  CD1      -33.7940   30.2210   14.8210 C.3   228  ILE228      0.0001
    155  N        -33.3490   37.1820   17.6770 N.3   232  GLN232     -0.1245
    156  CA       -32.0460   36.8570   18.2580 C.3   232  GLN232      0.1566
    157  C        -30.9060   37.6050   17.5650 C.2   232  GLN232      0.2260
    158  O        -29.9910   38.1090   18.2240 O.2   232  GLN232     -0.2867
    159  CB       -31.7870   35.3530   18.1620 C.3   232  GLN232      0.0367
    160  CG       -33.0180   34.4840   18.3340 C.3   232  GLN232      0.0905
    161  CD       -33.5520   34.4820   19.7470 C.2   232  GLN232      0.2608
    162  OE1      -34.6210   33.9290   20.0160 O.2   232  GLN232     -0.2717
    163  NE2      -32.8100   35.0930   20.6620 N.am  232  GLN232     -0.0878
@<TRIPOS>BOND
     1     1     2    1
     2   129   127   ar
     3     5     2    1
     4     5     6    1
     5     2     3    1
     6     6     7    1
     7     3     4    2
     8   127   128   ar
     9   127   126    1
    10   121   122    1
    11     9     7   ar
    12     7     8   ar
    13   126   125    1
    14   122   125    1
    15   122   123    1
    16    10    11    1
    17   123   130   am
    18   123   124    2
    19    24    22    1
    20   130   131    1
    21    22    23    1
    22    22    19    1
    23    11    14    1
    24    11    12    1
    25    14    15    1
    26    18    12   am
    27    18    19    1
    28   132   131    1
    29   132   133    2
    30   137   136    1
    31    12    13    2
    32    19    20    1
    33   131   134    1
    34   138   139    1
    35   134   135    1
    36    20    21    2
    37    40    39    1
    38    17    15    1
    39    15    16    1
    40   135   136    1
    41    39    38    1
    42   139   142    1
    43   139   140    1
    44   147   140   am
    45   147   148    1
    46    38    37    1
    47   142   143    1
    48   149   148    1
    49   149   150    2
    50   151   153    1
    51   151   148    1
    52   151   152    1
    53   140   141    2
    54   154   152    1
    55    37    36    1
    56    36    33    1
    57    25    26    1
    58   143   144    1
    59   145   144   ar
    60    32    33    1
    61    32    27   am
    62    31    29    1
    63   144   146   ar
    64    33    34    1
    65    29    26    1
    66    29    30    1
    67    26    27    1
    68    34    35    2
    69   115   114    2
    70    27    28    2
    71   107   106    2
    72   157   158    2
    73   157   156    1
    74   155   156    1
    75   114   113    1
    76   110   108    1
    77   159   156    1
    78   159   160    1
    79   113   112    1
    80   113   116    1
    81   160   161    1
    82   106   112   am
    83   106   105    1
    84   116   117    1
    85   117   118    1
    86   108   105    1
    87   108   109    1
    88   105   104    1
    89   119   118    2
    90   109   111    1
    91   161   162    2
    92   161   163   am
    93   118   120   am
    94    49    48    1
    95    41    42    1
    96    48    47    1
    97   103   102    1
    98    99    98    2
    99    45    42    1
   100    45    46    1
   101    47    46    1
   102    42    43    1
   103    43    44    2
   104    98    97    1
   105    90    89    2
   106   101   102    1
   107   101   100    1
   108    97   100    1
   109    97    96    1
   110    60    58   ar
   111    60    59   ar
   112    58    56   ar
   113    59    57   ar
   114    56    55   ar
   115    89    96   am
   116    89    88    1
   117    57    55   ar
   118    55    54    1
   119    54    51    1
   120    70    69    1
   121    88    91    1
   122    88    87    1
   123    91    92    1
   124    69    71    1
   125    69    68    2
   126    94    93    2
   127    68    67    1
   128    67    66    1
   129    51    50    1
   130    51    52    1
   131    92    93    1
   132    66    65    1
   133    82    81    2
   134    93    95   am
   135    75    74    2
   136    52    61   am
   137    52    53    2
   138    61    62    1
   139    81    80    1
   140    78    76    1
   141    65    62    1
   142    62    63    1
   143    74    73    1
   144    74    79   am
   145    80    79    1
   146    80    83    1
   147    86    84   ar
   148    73    76    1
   149    73    72    1
   150    76    77    1
   151    83    84    1
   152    84    85   ar
   153    63    64    2
