@<TRIPOS>MOLECULE
tmp/2z4rC00.pdb
 174 167 0 0 0
SMALL
GASTEIGER

@<TRIPOS>ATOM
      1  N         35.7730  -76.9340   -8.8490 N.3     6  ASP6       -0.1225
      2  CA        34.7090  -76.7030   -7.8760 C.3     6  ASP6        0.1805
      3  C         34.6810  -75.2940   -7.3120 C.2     6  ASP6        0.2597
      4  O         33.6100  -74.7270   -7.1220 O.2     6  ASP6       -0.2718
      5  CB        34.8250  -77.6740   -6.7080 C.3     6  ASP6        0.1424
      6  CG        34.8470  -79.1030   -7.1540 C.2     6  ASP6        0.3668
      7  OD1       34.3020  -79.3690   -8.2550 O.co2   6  ASP6       -0.2456
      8  OD2       35.3950  -79.9480   -6.4000 O.co2   6  ASP6       -0.2456
      9  N         35.8590  -74.7440   -7.0320 N.am    7  TYR7       -0.1976
     10  CA        35.9730  -73.4070   -6.4730 C.3     7  TYR7        0.1639
     11  C         35.4920  -72.3580   -7.4580 C.2     7  TYR7        0.2290
     12  O         36.2840  -71.7040   -8.1370 O.2     7  TYR7       -0.2864
     13  CB        37.4190  -73.1470   -6.0880 C.3     7  TYR7        0.0560
     14  CG        37.9170  -74.0820   -5.0220 C.ar    7  TYR7       -0.0198
     15  CD1       39.2770  -74.1420   -4.6860 C.ar    7  TYR7       -0.0009
     16  CD2       37.0280  -74.8850   -4.3160 C.ar    7  TYR7       -0.0009
     17  CE1       39.7290  -74.9810   -3.6650 C.ar    7  TYR7        0.0417
     18  CE2       37.4690  -75.7210   -3.3030 C.ar    7  TYR7        0.0417
     19  CZ        38.8140  -75.7620   -2.9810 C.ar    7  TYR7        0.1957
     20  OH        39.2130  -76.5740   -1.9570 O.3     7  TYR7       -0.2866
     21  N         29.2090  -72.5460   -6.9830 N.3    11  ASN11      -0.1225
     22  CA        29.0740  -73.6090   -5.9900 C.3    11  ASN11       0.1785
     23  C         29.2600  -73.0440   -4.5990 C.2    11  ASN11       0.2597
     24  O         29.5960  -73.7620   -3.6540 O.2    11  ASN11      -0.2718
     25  CB        30.0930  -74.7060   -6.2290 C.3    11  ASN11       0.1169
     26  CG        30.0600  -75.2120   -7.6300 C.2    11  ASN11       0.2627
     27  OD1       29.0200  -75.1730   -8.2820 O.2    11  ASN11      -0.2716
     28  ND2       31.1940  -75.7060   -8.1130 N.am   11  ASN11      -0.0877
     29  N         29.0320  -71.7430   -4.4830 N.am   12  PHE12      -0.1962
     30  CA        29.1830  -71.0640   -3.2160 C.3    12  PHE12       0.1771
     31  C         27.8240  -70.6350   -2.7090 C.2    12  PHE12       0.2619
     32  O         27.1860  -69.7560   -3.2820 O.2    12  PHE12      -0.2715
     33  CB        30.0800  -69.8300   -3.3830 C.3    12  PHE12       0.0574
     34  CG        30.6560  -69.3080   -2.0860 C.ar   12  PHE12      -0.0200
     35  CD1       31.8630  -69.7920   -1.6050 C.ar   12  PHE12      -0.0042
     36  CD2       29.9960  -68.3220   -1.3600 C.ar   12  PHE12      -0.0042
     37  CE1       32.4000  -69.3020   -0.4330 C.ar   12  PHE12      -0.0003
     38  CE2       30.5290  -67.8320   -0.1890 C.ar   12  PHE12      -0.0003
     39  CZ        31.7320  -68.3200    0.2750 C.ar   12  PHE12      -0.0000
     40  N         27.3760  -71.2730   -1.6400 N.am   13  VAL13      -0.1977
     41  CA        26.1050  -70.9260   -1.0290 C.3    13  VAL13       0.1596
     42  C         26.3290  -69.6340   -0.2430 C.2    13  VAL13       0.2287
     43  O         27.3300  -69.5070    0.4640 O.2    13  VAL13      -0.2864
     44  CB        25.6630  -72.0410   -0.0630 C.3    13  VAL13       0.0276
     45  CG1       24.5390  -71.5510    0.8350 C.3    13  VAL13       0.0022
     46  CG2       25.2340  -73.2730   -0.8610 C.3    13  VAL13       0.0022
     47  N         28.9150  -65.0960    5.1460 N.3    18  ASN18      -0.1240
     48  CA        29.8740  -65.0460    4.0460 C.3    18  ASN18       0.1653
     49  C         29.4050  -64.1630    2.9080 C.2    18  ASN18       0.2266
     50  O         30.1160  -64.0020    1.9210 O.2    18  ASN18      -0.2867
     51  CB        30.1420  -66.4400    3.4980 C.3    18  ASN18       0.1155
     52  CG        28.9000  -67.0820    2.9360 C.2    18  ASN18       0.2627
     53  OD1       28.9570  -68.1430    2.3230 O.2    18  ASN18      -0.2716
     54  ND2       27.7620  -66.4440    3.1500 N.am   18  ASN18      -0.0877
     55  N         39.8580  -71.2700    9.7160 N.3    44  VAL44      -0.1231
     56  CA        39.9160  -72.4500    8.8630 C.3    44  VAL44       0.1692
     57  C         38.5530  -72.8730    8.3480 C.2    44  VAL44       0.2593
     58  O         37.5310  -72.6850    9.0230 O.2    44  VAL44      -0.2718
     59  CB        40.5030  -73.6420    9.6040 C.3    44  VAL44       0.0266
     60  CG1       41.5860  -74.2810    8.7480 C.3    44  VAL44       0.0020
     61  CG2       41.0420  -73.1890   10.9740 C.3    44  VAL44       0.0020
     62  N         38.5630  -73.4510    7.1460 N.am   45  GLY45      -0.1942
     63  CA        37.3510  -73.9330    6.5110 C.3    45  GLY45       0.2014
     64  C         36.1740  -72.9790    6.5020 C.2    45  GLY45       0.2639
     65  O         35.1200  -73.2940    7.0490 O.2    45  GLY45      -0.2714
     66  N         36.3370  -71.8210    5.8740 N.am   46  LEU46      -0.1963
     67  CA        35.2520  -70.8610    5.8220 C.3    46  LEU46       0.1728
     68  C         35.0310  -70.2980    4.4310 C.2    46  LEU46       0.2617
     69  O         34.2230  -69.3880    4.2450 O.2    46  LEU46      -0.2715
     70  CB        35.5080  -69.7200    6.7900 C.3    46  LEU46       0.0311
     71  CG        35.4670  -70.0710    8.2610 C.3    46  LEU46       0.0022
     72  CD1       35.4030  -68.7610    9.0380 C.3    46  LEU46       0.0001
     73  CD2       34.2510  -70.9210    8.5750 C.3    46  LEU46       0.0001
     74  N         35.7640  -70.8140    3.4540 N.am   47  GLY47      -0.1940
     75  CA        35.5720  -70.3350    2.0950 C.3    47  GLY47       0.2014
     76  C         36.6450  -69.4720    1.4550 C.2    47  GLY47       0.2639
     77  O         36.5180  -69.1030    0.2880 O.2    47  GLY47      -0.2714
     78  N         37.7030  -69.1550    2.1930 N.am   48  LYS48      -0.1963
     79  CA        38.7740  -68.3130    1.6600 C.3    48  LYS48       0.1728
     80  C         39.3280  -68.8660    0.3520 C.2    48  LYS48       0.2617
     81  O         39.2450  -68.2300   -0.6960 O.2    48  LYS48      -0.2715
     82  CB        39.9290  -68.1730    2.6750 C.3    48  LYS48       0.0311
     83  CG        39.5500  -67.5400    4.0070 C.3    48  LYS48       0.0038
     84  CD        40.7600  -67.3270    4.8790 C.3    48  LYS48       0.0206
     85  CE        41.3870  -68.6310    5.3200 C.3    48  LYS48       0.1093
     86  NZ        40.6410  -69.2650    6.4330 N.3    48  LYS48      -0.1314
     87  N         39.9060  -70.0570    0.4190 N.am   49  THR49      -0.1937
     88  CA        40.4850  -70.6590   -0.7690 C.3    49  THR49       0.2028
     89  C         39.4620  -70.7220   -1.8960 C.2    49  THR49       0.2642
     90  O         39.6920  -70.2450   -3.0120 O.2    49  THR49      -0.2714
     91  CB        40.9590  -72.0730   -0.4790 C.3    49  THR49       0.1808
     92  OG1       41.7440  -72.0810    0.7210 O.3    49  THR49      -0.2208
     93  CG2       41.7840  -72.5810   -1.6450 C.3    49  THR49       0.0379
     94  N         38.3230  -71.3170   -1.5770 N.am   50  HIS50      -0.1973
     95  CA        37.2540  -71.4810   -2.5330 C.3    50  HIS50       0.1656
     96  C         36.8840  -70.1660   -3.1870 C.2    50  HIS50       0.2291
     97  O         36.7610  -70.0750   -4.4080 O.2    50  HIS50      -0.2864
     98  CB        36.0410  -72.0770   -1.8290 C.3    50  HIS50       0.0771
     99  CG        34.8780  -72.3210   -2.7330 C.ar   50  HIS50       0.0820
    100  ND1       34.0530  -73.4160   -2.5950 N.ar   50  HIS50      -0.2267
    101  CD2       34.3880  -71.6060   -3.7740 C.ar   50  HIS50       0.1154
    102  CE1       33.1050  -73.3640   -3.5140 C.ar   50  HIS50       0.1986
    103  NE2       33.2870  -72.2750   -4.2420 N.ar   50  HIS50      -0.2212
    104  N         46.5560  -68.2130    1.8330 N.3   107  ASP107     -0.1239
    105  CA        47.1720  -68.3990    3.1510 C.3   107  ASP107      0.1674
    106  C         48.4610  -67.6400    3.3620 C.2   107  ASP107      0.2266
    107  O         49.5430  -68.2140    3.2670 O.2   107  ASP107     -0.2867
    108  CB        47.4260  -69.8730    3.4050 C.3   107  ASP107      0.1410
    109  CG        46.1480  -70.6570    3.5440 C.2   107  ASP107      0.3668
    110  OD1       45.4050  -70.4250    4.5240 O.co2 107  ASP107     -0.2456
    111  OD2       45.8790  -71.5050    2.6670 O.co2 107  ASP107     -0.2456
    112  N         24.8340  -75.6480    2.2760 N.3   176  ILE176     -0.1245
    113  CA        26.1890  -75.8530    1.8090 C.3   176  ILE176      0.1561
    114  C         26.4080  -77.3520    1.6420 C.2   176  ILE176      0.2260
    115  O         26.9800  -77.8000    0.6480 O.2   176  ILE176     -0.2867
    116  CB        27.2080  -75.2830    2.8180 C.3   176  ILE176      0.0252
    117  CG1       27.1040  -73.7670    2.8590 C.3   176  ILE176      0.0019
    118  CG2       28.6260  -75.6960    2.4390 C.3   176  ILE176      0.0019
    119  CD1       28.0790  -73.1430    3.8160 C.3   176  ILE176      0.0001
    120  N         24.7080  -78.5850   -1.5550 N.3   179  LYS179     -0.1231
    121  CA        25.4460  -78.1710   -2.7490 C.3   179  LYS179      0.1693
    122  C         26.7740  -78.8950   -2.7750 C.2   179  LYS179      0.2591
    123  O         27.4180  -78.9960   -3.8190 O.2   179  LYS179     -0.2718
    124  CB        25.7190  -76.6610   -2.7370 C.3   179  LYS179      0.0285
    125  CG        26.3980  -76.1210   -3.9970 C.3   179  LYS179      0.0035
    126  CD        25.4050  -76.0340   -5.1410 C.3   179  LYS179      0.0206
    127  CE        26.0080  -75.3440   -6.3630 C.3   179  LYS179      0.1093
    128  NZ        25.0560  -75.2430   -7.5200 N.3   179  LYS179     -0.1314
    129  N         27.1910  -79.3830   -1.6130 N.am  180  MET180     -0.1979
    130  CA        28.4540  -80.0950   -1.5090 C.3   180  MET180      0.1605
    131  C         28.2720  -81.4370   -2.1870 C.2   180  MET180      0.2287
    132  O         29.1500  -81.8880   -2.9300 O.2   180  MET180     -0.2864
    133  CB        28.8270  -80.2880   -0.0430 C.3   180  MET180      0.0413
    134  CG        30.3070  -80.1190    0.2320 C.3   180  MET180      0.0598
    135  SD        30.5510  -79.0110    1.6170 S.3   180  MET180     -0.1393
    136  CE        30.0610  -80.0820    2.9330 C.3   180  MET180      0.0692
    137  N         28.1100  -81.4530   -6.1620 N.3   183  ILE183     -0.1245
    138  CA        29.4730  -81.4310   -6.6470 C.3   183  ILE183      0.1561
    139  C         30.1230  -82.8120   -6.6170 C.2   183  ILE183      0.2260
    140  O         30.9210  -83.1300   -7.4970 O.2   183  ILE183     -0.2867
    141  CB        30.3200  -80.4000   -5.8450 C.3   183  ILE183      0.0252
    142  CG1       29.7290  -78.9990   -6.0450 C.3   183  ILE183      0.0019
    143  CG2       31.7830  -80.4210   -6.3090 C.3   183  ILE183      0.0019
    144  CD1       30.4090  -77.9220   -5.2520 C.3   183  ILE183      0.0001
    145  N         33.8590  -75.9780    7.3440 N.3   204  LEU204     -0.1231
    146  CA        33.3520  -76.6280    6.1690 C.3   204  LEU204      0.1693
    147  C         34.3130  -77.6400    5.5710 C.2   204  LEU204      0.2591
    148  O         33.9260  -78.4100    4.7000 O.2   204  LEU204     -0.2718
    149  CB        32.9460  -75.5700    5.1490 C.3   204  LEU204      0.0284
    150  CG        31.8790  -74.5920    5.6610 C.3   204  LEU204      0.0019
    151  CD1       31.4030  -73.7290    4.5210 C.3   204  LEU204      0.0001
    152  CD2       30.7000  -75.3460    6.2580 C.3   204  LEU204      0.0001
    153  N         35.5590  -77.6620    6.0320 N.am  205  ARG205     -0.1980
    154  CA        36.5120  -78.6470    5.5100 C.3   205  ARG205      0.1597
    155  C         36.0670  -80.0060    6.0160 C.2   205  ARG205      0.2287
    156  O         36.0710  -80.9940    5.2820 O.2   205  ARG205     -0.2864
    157  CB        37.9360  -78.3750    6.0070 C.3   205  ARG205      0.0334
    158  CG        38.9880  -79.3280    5.4480 C.3   205  ARG205      0.0492
    159  CD        40.3970  -78.8200    5.7280 C.3   205  ARG205      0.2205
    160  NE        40.4980  -77.3720    5.5240 N.pl3 205  ARG205     -0.0865
    161  CZ        40.2240  -76.7350    4.3810 C.cat 205  ARG205      0.5346
    162  NH1       39.8290  -77.4080    3.3000 N.pl3 205  ARG205      0.1354
    163  NH2       40.3280  -75.4100    4.3190 N.pl3 205  ARG205      0.1354
    164  N         32.4720  -81.3120    4.5720 N.3   208  ARG208     -0.1245
    165  CA        32.6580  -82.0340    3.3220 C.3   208  ARG208      0.1563
    166  C         33.3180  -83.3710    3.6150 C.2   208  ARG208      0.2260
    167  O         32.9500  -84.4000    3.0460 O.2   208  ARG208     -0.2867
    168  CB        33.5440  -81.2430    2.3650 C.3   208  ARG208      0.0307
    169  CG        33.7340  -81.9410    1.0490 C.3   208  ARG208      0.0489
    170  CD        34.9150  -81.4200    0.2920 C.3   208  ARG208      0.2205
    171  NE        35.1680  -82.2780   -0.8550 N.pl3 208  ARG208     -0.0865
    172  CZ        36.1800  -82.1280   -1.7040 C.cat 208  ARG208      0.5346
    173  NH1       37.0510  -81.1390   -1.5390 N.pl3 208  ARG208      0.1354
    174  NH2       36.3160  -82.9700   -2.7260 N.pl3 208  ARG208      0.1354
@<TRIPOS>BOND
     1     1     2    1
     2    27    26    2
     3     7     6   ar
     4    12    11    2
     5    28    26   am
     6     2     3    1
     7     2     5    1
     8    26    25    1
     9   128   127    1
    10   140   139    2
    11    11    10    1
    12     3     4    2
    13     3     9   am
    14     6     5    1
    15     6     8   ar
    16     9    10    1
    17    21    22    1
    18   138   139    1
    19   138   137    1
    20   138   141    1
    21    10    13    1
    22   127   126    1
    23   143   141    1
    24    25    22    1
    25    13    14    1
    26   142   141    1
    27   142   144    1
    28    22    23    1
    29   126   125    1
    30    14    15   ar
    31    14    16   ar
    32    15    17   ar
    33    23    29   am
    34    23    24    2
    35    29    30    1
    36    97    96    2
    37    16    18   ar
    38   103   101   ar
    39   103   102   ar
    40   125   124    1
    41   123   122    2
    42   101    99   ar
    43    17    19   ar
    44   102   100   ar
    45    33    30    1
    46    33    34    1
    47    18    19   ar
    48    32    31    2
    49    30    31    1
    50    96    95    1
    51    90    89    2
    52    19    20    1
    53   132   131    2
    54   122   121    1
    55   122   129   am
    56   121   124    1
    57   121   120    1
    58    99   100   ar
    59    99    98    1
    60   174   172    1
    61    31    40   am
    62    95    98    1
    63    95    94    1
    64   131   130    1
    65    34    35   ar
    66    34    36   ar
    67    89    94   am
    68    89    88    1
    69   172   173    1
    70   172   171    2
    71    93    91    1
    72    40    41    1
    73   129   130    1
    74    35    37   ar
    75   130   133    1
    76    36    38   ar
    77    41    42    1
    78    41    44    1
    79    46    44    1
    80   171   170    1
    81    88    91    1
    82    88    87    1
    83    81    80    2
    84    91    92    1
    85    37    39   ar
    86    42    43    2
    87    38    39   ar
    88    44    45    1
    89   133   134    1
    90   134   135    1
    91    77    76    2
    92   170   169    1
    93    80    87   am
    94    80    79    1
    95   115   114    2
    96   169   168    1
    97    76    75    1
    98    76    78   am
    99   135   136    1
   100   114   113    1
   101    79    78    1
   102    79    82    1
   103   113   112    1
   104   113   116    1
   105   104   105    1
   106    50    49    2
   107    75    74    1
   108    53    52    2
   109   168   165    1
   110   118   116    1
   111   111   109   ar
   112    82    83    1
   113   116   117    1
   114   117   119    1
   115    49    48    1
   116    52    54   am
   117    52    51    1
   118   167   166    2
   119   105   106    1
   120   105   108    1
   121   107   106    2
   122   162   161    1
   123   165   166    1
   124   165   164    1
   125   108   109    1
   126    74    68   am
   127    51    48    1
   128   109   110   ar
   129    83    84    1
   130    48    47    1
   131    69    68    2
   132   163   161    1
   133   161   160    2
   134    68    67    1
   135   151   150    1
   136   148   147    2
   137    84    85    1
   138   149   150    1
   139   149   146    1
   140   156   155    2
   141    85    86    1
   142   158   159    1
   143   158   157    1
   144   154   157    1
   145   154   155    1
   146   154   153    1
   147   160   159    1
   148   147   153   am
   149   147   146    1
   150   150   152    1
   151    67    66    1
   152    67    70    1
   153    66    64   am
   154   146   145    1
   155    64    63    1
   156    64    65    2
   157    63    62    1
   158    70    71    1
   159    62    57   am
   160    71    73    1
   161    71    72    1
   162    57    56    1
   163    57    58    2
   164    60    59    1
   165    56    59    1
   166    56    55    1
   167    59    61    1
