@<TRIPOS>MOLECULE
tmp/2z4tA00.pdb
 81 78 0 0 0
SMALL
GASTEIGER

@<TRIPOS>ATOM
      1  N         31.5710  -36.2700  -24.1470 N.3   102  HIS102     -0.1226
      2  CA        32.8200  -36.7070  -23.5530 C.3   102  HIS102      0.1752
      3  C         32.9680  -36.0510  -22.1880 C.2   102  HIS102      0.2595
      4  O         33.8580  -36.4310  -21.4250 O.2   102  HIS102     -0.2718
      5  CB        33.9970  -36.2710  -24.4280 C.3   102  HIS102      0.0759
      6  CG        34.1870  -34.7870  -24.4450 C.ar  102  HIS102      0.0818
      7  ND1       33.3690  -33.9440  -25.1720 N.ar  102  HIS102     -0.2268
      8  CD2       35.0560  -33.9890  -23.7760 C.ar  102  HIS102      0.1154
      9  CE1       33.7400  -32.6920  -24.9660 C.ar  102  HIS102      0.1986
     10  NE2       34.7600  -32.6920  -24.1220 N.ar  102  HIS102     -0.2212
     11  N         32.1190  -35.0610  -21.8990 N.am  103  ALA103     -0.1980
     12  CA        32.2510  -34.2260  -20.6960 C.3   103  ALA103      0.1597
     13  C         31.3800  -34.7570  -19.5550 C.2   103  ALA103      0.2287
     14  O         31.2460  -35.9750  -19.4230 O.2   103  ALA103     -0.2864
     15  CB        31.9260  -32.7870  -21.0120 C.3   103  ALA103      0.0319
     16  N         32.3550  -40.3600  -19.4470 N.3   132  ARG132     -0.1245
     17  CA        32.4860  -40.2650  -17.9850 C.3   132  ARG132      0.1563
     18  C         31.4530  -41.0490  -17.1950 C.2   132  ARG132      0.2260
     19  O         31.4570  -41.0220  -15.9680 O.2   132  ARG132     -0.2867
     20  CB        32.4970  -38.7910  -17.5420 C.3   132  ARG132      0.0307
     21  CG        33.5900  -37.9880  -18.2220 C.3   132  ARG132      0.0489
     22  CD        34.3460  -37.1130  -17.2720 C.3   132  ARG132      0.2205
     23  NE        35.5970  -36.6660  -17.8860 N.pl3 132  ARG132     -0.0865
     24  CZ        36.8150  -37.1210  -17.5780 C.cat 132  ARG132      0.5346
     25  NH1       36.9900  -38.0480  -16.6300 N.pl3 132  ARG132      0.1354
     26  NH2       37.8740  -36.6340  -18.2210 N.pl3 132  ARG132      0.1354
     27  N         37.4080  -37.7100  -28.3920 N.3   153  ASN153     -0.1240
     28  CA        36.2610  -37.1260  -27.6870 C.3   153  ASN153      0.1653
     29  C         34.9890  -36.9710  -28.4830 C.2   153  ASN153      0.2266
     30  O         34.0320  -36.3460  -28.0030 O.2   153  ASN153     -0.2867
     31  CB        36.6440  -35.7690  -27.1160 C.3   153  ASN153      0.1155
     32  CG        37.7350  -35.8820  -26.0910 C.2   153  ASN153      0.2627
     33  OD1       37.8080  -36.8740  -25.3560 O.2   153  ASN153     -0.2716
     34  ND2       38.5880  -34.8750  -26.0240 N.am  153  ASN153     -0.0877
     35  N         28.8570  -27.3080  -27.4990 N.3   182  ALA182     -0.1231
     36  CA        30.1310  -26.7760  -28.0380 C.3   182  ALA182      0.1694
     37  C         30.7650  -27.7040  -29.0570 C.2   182  ALA182      0.2592
     38  O         31.4210  -27.2320  -29.9930 O.2   182  ALA182     -0.2718
     39  CB        31.1330  -26.4830  -26.9280 C.3   182  ALA182      0.0304
     40  N         30.5570  -29.0110  -28.8640 N.am  183  HIS183     -0.1976
     41  CA        31.1380  -30.0560  -29.7160 C.3   183  HIS183      0.1656
     42  C         30.1320  -30.6960  -30.6870 C.2   183  HIS183      0.2291
     43  O         30.4090  -31.7780  -31.2170 O.2   183  HIS183     -0.2864
     44  CB        31.7540  -31.1570  -28.8370 C.3   183  HIS183      0.0771
     45  CG        32.9380  -30.7000  -28.0520 C.ar  183  HIS183      0.0820
     46  ND1       34.2330  -30.9110  -28.4730 N.ar  183  HIS183     -0.2267
     47  CD2       33.0260  -30.0020  -26.8940 C.ar  183  HIS183      0.1154
     48  CE1       35.0660  -30.3660  -27.6030 C.ar  183  HIS183      0.1986
     49  NE2       34.3600  -29.7990  -26.6440 N.ar  183  HIS183     -0.2212
     50  N         28.1890  -28.2070  -22.6490 N.3   211  ASP211     -0.1239
     51  CA        29.3580  -28.7470  -21.9820 C.3   211  ASP211      0.1674
     52  C         29.4040  -28.2000  -20.5610 C.2   211  ASP211      0.2266
     53  O         29.6420  -28.9450  -19.6100 O.2   211  ASP211     -0.2867
     54  CB        30.6020  -28.3340  -22.7640 C.3   211  ASP211      0.1410
     55  CG        31.8520  -29.0140  -22.2710 C.2   211  ASP211      0.3668
     56  OD1       32.3060  -28.7180  -21.1310 O.co2 211  ASP211     -0.2456
     57  OD2       32.3850  -29.8370  -23.0520 O.co2 211  ASP211     -0.2456
     58  N         32.0010  -23.6570  -20.6740 N.3   214  ALA214     -0.1245
     59  CA        32.7090  -23.5310  -21.9560 C.3   214  ALA214      0.1562
     60  C         31.9110  -22.7820  -23.0000 C.2   214  ALA214      0.2260
     61  O         32.4600  -21.9110  -23.6830 O.2   214  ALA214     -0.2867
     62  CB        33.1370  -24.8870  -22.4960 C.3   214  ALA214      0.0290
     63  N         42.3400  -28.7030  -18.1500 N.3   344  TRP344     -0.1227
     64  CA        42.3090  -29.2780  -19.5030 C.3   344  TRP344      0.1737
     65  C         43.5540  -28.8300  -20.3010 C.2   344  TRP344      0.2595
     66  O         44.0460  -27.7070  -20.1270 O.2   344  TRP344     -0.2718
     67  CB        41.0230  -28.8890  -20.2500 C.3   344  TRP344      0.0564
     68  CG        39.7170  -29.2130  -19.5340 C.ar  344  TRP344      0.0003
     69  CD1       38.6890  -28.3420  -19.2760 C.ar  344  TRP344      0.0946
     70  CD2       39.2950  -30.4920  -19.0160 C.ar  344  TRP344      0.0152
     71  NE1       37.6640  -28.9870  -18.6180 N.ar  344  TRP344     -0.2442
     72  CE2       38.0000  -30.3070  -18.4500 C.ar  344  TRP344      0.0810
     73  CE3       39.8840  -31.7630  -18.9590 C.ar  344  TRP344      0.0012
     74  CZ2       37.2800  -31.3500  -17.8510 C.ar  344  TRP344      0.0191
     75  CZ3       39.1700  -32.8050  -18.3460 C.ar  344  TRP344      0.0001
     76  CH2       37.8750  -32.5850  -17.8040 C.ar  344  TRP344      0.0015
     77  N         44.0650  -29.7140  -21.1620 N.am  345  ALA345     -0.1980
     78  CA        45.2080  -29.3770  -22.0240 C.3   345  ALA345      0.1597
     79  C         46.3600  -28.7050  -21.2470 C.2   345  ALA345      0.2287
     80  O         46.9730  -27.7540  -21.7410 O.2   345  ALA345     -0.2864
     81  CB        44.7480  -28.4730  -23.1840 C.3   345  ALA345      0.0319
@<TRIPOS>BOND
     1    43    42    2
     2    42    41    1
     3    38    37    2
     4    41    40    1
     5    41    44    1
     6    37    40   am
     7    37    36    1
     8    44    45    1
     9    29    30    2
    10    29    28    1
    11    46    45   ar
    12    46    48   ar
    13    27    28    1
    14    45    47   ar
    15    36    35    1
    16    36    39    1
    17    28    31    1
    18    48    49   ar
    19    31    32    1
    20    47    49   ar
    21    32    34   am
    22    32    33    2
    23     7     9   ar
    24     7     6   ar
    25     9    10   ar
    26     6     5    1
    27     6     8   ar
    28     5     2    1
    29     1     2    1
    30    10     8   ar
    31    61    60    2
    32     2     3    1
    33    81    78    1
    34    57    55   ar
    35    60    59    1
    36    54    55    1
    37    54    51    1
    38    50    51    1
    39    62    59    1
    40    55    56   ar
    41     3    11   am
    42     3     4    2
    43    78    79    1
    44    78    77    1
    45    51    52    1
    46    59    58    1
    47    11    12    1
    48    80    79    2
    49    77    65   am
    50    15    12    1
    51    12    13    1
    52    52    53    2
    53    65    66    2
    54    65    64    1
    55    67    68    1
    56    67    64    1
    57    13    14    2
    58    68    69   ar
    59    68    70   ar
    60    64    63    1
    61    16    17    1
    62    69    71   ar
    63    70    73   ar
    64    70    72   ar
    65    73    75   ar
    66    71    72   ar
    67    72    74   ar
    68    75    76   ar
    69    21    20    1
    70    21    22    1
    71    26    24    1
    72    17    20    1
    73    17    18    1
    74    23    24    2
    75    23    22    1
    76    74    76   ar
    77    24    25    1
    78    18    19    2
