@<TRIPOS>MOLECULE
tmp/2z4tA01.pdb
 137 133 0 0 0
SMALL
GASTEIGER

@<TRIPOS>ATOM
      1  N         30.7970  -33.8760  -18.7300 N.3   104  SER104     -0.1202
      2  CA        30.0120  -34.3340  -17.5590 C.3   104  SER104      0.2020
      3  C         28.5620  -33.9010  -17.6180 C.2   104  SER104      0.2618
      4  O         27.6460  -34.7230  -17.4790 O.2   104  SER104     -0.2717
      5  CB        30.6090  -33.8420  -16.2440 C.3   104  SER104      0.2103
      6  OG        31.9710  -34.2030  -16.1300 O.3   104  SER104     -0.2182
      7  N         28.3580  -32.6100  -17.8430 N.am  105  LEU105     -0.1979
      8  CA        27.0160  -32.0350  -17.8340 C.3   105  LEU105      0.1596
      9  C         26.0810  -32.6490  -18.8820 C.2   105  LEU105      0.2287
     10  O         25.0180  -33.1860  -18.5100 O.2   105  LEU105     -0.2864
     11  CB        27.0890  -30.5290  -17.9870 C.3   105  LEU105      0.0297
     12  CG        25.8970  -29.7920  -17.3990 C.3   105  LEU105      0.0022
     13  CD1       25.5640  -30.2810  -16.0040 C.3   105  LEU105      0.0001
     14  CD2       26.2320  -28.3220  -17.3560 C.3   105  LEU105      0.0001
     15  N         28.1890  -28.2070  -22.6490 N.3   211  ASP211     -0.1239
     16  CA        29.3580  -28.7470  -21.9820 C.3   211  ASP211      0.1674
     17  C         29.4040  -28.2000  -20.5610 C.2   211  ASP211      0.2266
     18  O         29.6420  -28.9450  -19.6100 O.2   211  ASP211     -0.2867
     19  CB        30.6020  -28.3340  -22.7640 C.3   211  ASP211      0.1410
     20  CG        31.8520  -29.0140  -22.2710 C.2   211  ASP211      0.3668
     21  OD1       32.3060  -28.7180  -21.1310 O.co2 211  ASP211     -0.2456
     22  OD2       32.3850  -29.8370  -23.0520 O.co2 211  ASP211     -0.2456
     23  N         30.3620  -24.2690  -18.6110 N.3   213  SER213     -0.1217
     24  CA        30.7690  -22.8820  -18.7130 C.3   213  SER213      0.1889
     25  C         31.4360  -22.6150  -20.0600 C.2   213  SER213      0.2288
     26  O         31.3980  -21.4950  -20.5500 O.2   213  SER213     -0.2866
     27  CB        31.6930  -22.5240  -17.5390 C.3   213  SER213      0.2089
     28  OG        32.9210  -23.2330  -17.5940 O.3   213  SER213     -0.2183
     29  N         34.4390  -28.3350   -3.4630 N.3   339  THR339     -0.1203
     30  CA        34.3490  -28.7950   -4.8490 C.3   339  THR339      0.1994
     31  C         35.6250  -28.4490   -5.6090 C.2   339  THR339      0.2618
     32  O         36.0450  -27.2910   -5.6230 O.2   339  THR339     -0.2717
     33  CB        33.0940  -28.2330   -5.5950 C.3   339  THR339      0.1784
     34  OG1       33.1810  -26.8070   -5.7400 O.3   339  THR339     -0.2211
     35  CG2       31.8430  -28.5690   -4.8470 C.3   339  THR339      0.0376
     36  N         36.2410  -29.4450   -6.2490 N.am  340  GLY340     -0.1942
     37  CA        37.5430  -29.2350   -6.9040 C.3   340  GLY340      0.2014
     38  C         37.4290  -28.9080   -8.3770 C.2   340  GLY340      0.2639
     39  O         36.3340  -28.8560   -8.9210 O.2   340  GLY340     -0.2714
     40  N         38.5680  -28.6790   -9.0190 N.am  341  THR341     -0.1950
     41  CA        38.6150  -28.4660  -10.4540 C.3   341  THR341      0.1897
     42  C         39.7160  -29.3200  -11.1050 C.2   341  THR341      0.2313
     43  O         40.4510  -30.0280  -10.4210 O.2   341  THR341     -0.2863
     44  CB        38.8320  -26.9690  -10.8110 C.3   341  THR341      0.1794
     45  OG1       38.5120  -26.7510  -12.1880 O.3   341  THR341     -0.2208
     46  CG2       40.2770  -26.5390  -10.5540 C.3   341  THR341      0.0378
     47  N         42.3400  -28.7030  -18.1500 N.3   344  TRP344     -0.1241
     48  CA        42.3090  -29.2780  -19.5030 C.3   344  TRP344      0.1605
     49  C         43.5540  -28.8300  -20.3010 C.2   344  TRP344      0.2264
     50  O         44.0460  -27.7070  -20.1270 O.2   344  TRP344     -0.2867
     51  CB        41.0230  -28.8890  -20.2500 C.3   344  TRP344      0.0550
     52  CG        39.7170  -29.2130  -19.5340 C.ar  344  TRP344      0.0003
     53  CD1       38.6890  -28.3420  -19.2760 C.ar  344  TRP344      0.0946
     54  CD2       39.2950  -30.4920  -19.0160 C.ar  344  TRP344      0.0152
     55  NE1       37.6640  -28.9870  -18.6180 N.ar  344  TRP344     -0.2442
     56  CE2       38.0000  -30.3070  -18.4500 C.ar  344  TRP344      0.0810
     57  CE3       39.8840  -31.7630  -18.9590 C.ar  344  TRP344      0.0012
     58  CZ2       37.2800  -31.3500  -17.8510 C.ar  344  TRP344      0.0191
     59  CZ3       39.1700  -32.8050  -18.3460 C.ar  344  TRP344      0.0001
     60  CH2       37.8750  -32.5850  -17.8040 C.ar  344  TRP344      0.0015
     61  N         34.6300  -33.2850   -3.2950 N.3   382  LYS382     -0.1245
     62  CA        34.0860  -33.6110   -4.6210 C.3   382  LYS382      0.1561
     63  C         35.0250  -32.8310   -5.5650 C.2   382  LYS382      0.2260
     64  O         34.6790  -31.7120   -5.9060 O.2   382  LYS382     -0.2867
     65  CB        32.6770  -33.0040   -4.6410 C.3   382  LYS382      0.0271
     66  CG        31.8750  -33.1970   -5.9200 C.3   382  LYS382      0.0035
     67  CD        31.8340  -34.6850   -6.2550 C.3   382  LYS382      0.0206
     68  CE        31.3010  -34.9000   -7.5890 C.3   382  LYS382      0.1093
     69  NZ        32.2240  -34.5980   -8.6780 N.3   382  LYS382     -0.1314
     70  N         36.0050  -32.7620   -9.0120 N.3   384  HIS384     -0.1227
     71  CA        36.2750  -32.9550  -10.4620 C.3   384  HIS384      0.1737
     72  C         36.3770  -34.3300  -11.1200 C.2   384  HIS384      0.2438
     73  O         37.3320  -35.0620  -10.9040 O.2   384  HIS384     -0.2733
     74  CB        37.1420  -31.8790  -11.1290 C.3   384  HIS384      0.0758
     75  CG        36.5870  -31.4100  -12.4430 C.ar  384  HIS384      0.0818
     76  ND1       36.5720  -32.2020  -13.5770 N.ar  384  HIS384     -0.2268
     77  CD2       35.9950  -30.2400  -12.8000 C.ar  384  HIS384      0.1154
     78  CE1       36.0020  -31.5380  -14.5690 C.ar  384  HIS384      0.1986
     79  NE2       35.6500  -30.3420  -14.1260 N.ar  384  HIS384     -0.2212
     80  N         35.3480  -34.6880  -11.9010 N.am  385  PRO385     -0.2729
     81  CA        35.3010  -35.9800  -12.6140 C.3   385  PRO385      0.1401
     82  C         36.5760  -36.2660  -13.4090 C.2   385  PRO385      0.2269
     83  O         37.0320  -37.4050  -13.4230 O.2   385  PRO385     -0.2865
     84  CB        34.0990  -35.8390  -13.5460 C.3   385  PRO385      0.0296
     85  CG        33.1940  -34.8310  -12.8640 C.3   385  PRO385      0.0237
     86  CD        34.1180  -33.8900  -12.0760 C.3   385  PRO385      0.0939
     87  N         28.3500  -36.4160  -10.8330 N.3   409  SER409     -0.1202
     88  CA        28.0420  -34.9910  -11.0510 C.3   409  SER409      0.2020
     89  C         27.4420  -34.3930   -9.7860 C.2   409  SER409      0.2619
     90  O         26.5660  -34.9980   -9.1550 O.2   409  SER409     -0.2717
     91  CB        27.1150  -34.7820  -12.2240 C.3   409  SER409      0.2103
     92  OG        27.8930  -34.5270  -13.3830 O.3   409  SER409     -0.2182
     93  N         27.9290  -33.2230   -9.3950 N.am  410  PHE410     -0.1961
     94  CA        27.5110  -32.6470   -8.1400 C.3   410  PHE410      0.1771
     95  C         26.0240  -32.3310   -8.1560 C.2   410  PHE410      0.2619
     96  O         25.3540  -32.3350   -7.1070 O.2   410  PHE410     -0.2715
     97  CB        28.3410  -31.3980   -7.8250 C.3   410  PHE410      0.0574
     98  CG        28.1060  -30.8400   -6.4580 C.ar  410  PHE410     -0.0200
     99  CD1       28.4830  -31.5490   -5.3270 C.ar  410  PHE410     -0.0042
    100  CD2       27.5180  -29.6020   -6.2980 C.ar  410  PHE410     -0.0042
    101  CE1       28.2760  -31.0200   -4.0250 C.ar  410  PHE410     -0.0003
    102  CE2       27.3180  -29.0560   -5.0400 C.ar  410  PHE410     -0.0003
    103  CZ        27.6900  -29.7610   -3.8950 C.ar  410  PHE410     -0.0000
    104  N         25.4850  -32.0500   -9.3370 N.am  411  GLU411     -0.1977
    105  CA        24.0750  -31.7230   -9.3240 C.3   411  GLU411      0.1602
    106  C         23.1540  -32.8960   -8.9620 C.2   411  GLU411      0.2287
    107  O         22.0160  -32.6760   -8.5430 O.2   411  GLU411     -0.2864
    108  CB        23.5950  -30.7870  -10.4600 C.3   411  GLU411      0.0415
    109  CG        24.2400  -30.8530  -11.7970 C.3   411  GLU411      0.1163
    110  CD        25.6520  -30.3410  -11.9030 C.2   411  GLU411      0.3649
    111  OE1       25.9090  -29.1360  -12.0210 O.co2 411  GLU411     -0.2457
    112  OE2       26.5270  -31.1950  -11.9900 O.co2 411  GLU411     -0.2457
    113  N         35.7320  -22.1910   -9.0960 N.3   427  ALA427     -0.1231
    114  CA        34.8010  -21.8020  -10.1490 C.3   427  ALA427      0.1694
    115  C         34.5450  -22.9710  -11.0880 C.2   427  ALA427      0.2593
    116  O         35.4810  -23.6240  -11.5800 O.2   427  ALA427     -0.2718
    117  CB        35.3720  -20.6110  -10.9190 C.3   427  ALA427      0.0304
    118  N         33.2670  -23.2190  -11.3470 N.am  428  SER428     -0.1938
    119  CA        32.8480  -24.4090  -12.0520 C.3   428  SER428      0.2055
    120  C         31.4470  -24.2090  -12.5540 C.2   428  SER428      0.2644
    121  O         30.6810  -23.4160  -11.9760 O.2   428  SER428     -0.2714
    122  CB        32.8360  -25.5830  -11.0830 C.3   428  SER428      0.2130
    123  OG        32.1140  -26.6780  -11.6360 O.3   428  SER428     -0.2179
    124  N         31.0930  -24.9650  -13.5870 N.am  429  SER429     -0.1935
    125  CA        29.7260  -25.0110  -14.0850 C.3   429  SER429      0.2055
    126  C         28.7210  -25.3690  -12.9930 C.2   429  SER429      0.2642
    127  O         27.5470  -24.9730  -13.0450 O.2   429  SER429     -0.2714
    128  CB        29.6110  -26.0120  -15.2290 C.3   429  SER429      0.2130
    129  OG        30.6450  -25.8200  -16.1770 O.3   429  SER429     -0.2179
    130  N         29.1730  -26.1010  -11.9840 N.am  430  LEU430     -0.1977
    131  CA        28.2500  -26.5440  -10.9530 C.3   430  LEU430      0.1596
    132  C         27.6420  -25.3300  -10.2180 C.2   430  LEU430      0.2287
    133  O         26.4700  -25.3600   -9.8270 O.2   430  LEU430     -0.2864
    134  CB        28.9120  -27.5770  -10.0180 C.3   430  LEU430      0.0297
    135  CG        29.9560  -27.0910   -9.0000 C.3   430  LEU430      0.0022
    136  CD1       29.2720  -26.5740   -7.7190 C.3   430  LEU430      0.0001
    137  CD2       31.0040  -28.1770   -8.6790 C.3   430  LEU430      0.0001
@<TRIPOS>BOND
     1    22    20   ar
     2    19    20    1
     3    19    16    1
     4    15    16    1
     5    20    21   ar
     6    16    17    1
     7    17    18    2
     8    26    25    2
     9    49    50    2
    10    49    48    1
    11    51    52    1
    12    51    48    1
    13    25    24    1
    14    52    53   ar
    15    52    54   ar
    16    48    47    1
    17    53    55   ar
    18    54    57   ar
    19    54    56   ar
    20    57    59   ar
    21     9    10    2
    22     9     8    1
    23     1     2    1
    24    24    23    1
    25    24    27    1
    26    55    56   ar
    27    56    58   ar
    28    59    60   ar
    29    11     8    1
    30    11    12    1
    31    58    60   ar
    32     7     8    1
    33     7     3   am
    34     3     2    1
    35     3     4    2
    36    28    27    1
    37     2     5    1
    38    12    14    1
    39    12    13    1
    40     5     6    1
    41   129   128    1
    42   128   125    1
    43    78    79   ar
    44    78    76   ar
    45    79    77   ar
    46   125   124    1
    47   125   126    1
    48   124   120   am
    49    76    75   ar
    50    84    85    1
    51    84    81    1
    52    83    82    2
    53    82    81    1
    54    92    91    1
    55   127   126    2
    56   126   130   am
    57    85    86    1
    58    77    75   ar
    59    81    80    1
    60   120   119    1
    61   120   121    2
    62    75    74    1
    63    91    88    1
    64    45    44    1
    65    86    80    1
    66   119   118    1
    67   119   122    1
    68   111   110   ar
    69   112   110   ar
    70   130   131    1
    71   110   109    1
    72    80    72   am
    73   109   108    1
    74   123   122    1
    75   116   115    2
    76   118   115   am
    77    74    71    1
    78    72    73    2
    79    72    71    1
    80    42    41    1
    81    42    43    2
    82   115   114    1
    83    88    87    1
    84    88    89    1
    85   131   132    1
    86   131   134    1
    87   117   114    1
    88    44    46    1
    89    44    41    1
    90    71    70    1
    91   108   105    1
    92    41    40    1
    93   132   133    2
    94   114   113    1
    95   134   135    1
    96    89    93   am
    97    89    90    2
    98    93    94    1
    99   104   105    1
   100   104    95   am
   101   105   106    1
   102    40    38   am
   103   135   137    1
   104   135   136    1
   105   106   107    2
   106    39    38    2
   107    69    68    1
   108    38    37    1
   109    95    94    1
   110    95    96    2
   111    94    97    1
   112    97    98    1
   113    68    67    1
   114    37    36    1
   115    98   100   ar
   116    98    99   ar
   117   100   102   ar
   118    67    66    1
   119    36    31   am
   120    66    65    1
   121    64    63    2
   122    34    33    1
   123    32    31    2
   124    31    30    1
   125    33    30    1
   126    33    35    1
   127    63    62    1
   128    99   101   ar
   129   102   103   ar
   130    30    29    1
   131    65    62    1
   132    62    61    1
   133   101   103   ar
