@<TRIPOS>MOLECULE
tmp/2z4vB00.pdb
 247 228 0 0 0
SMALL
GASTEIGER

@<TRIPOS>ATOM
      1  N         17.4760   32.4910   40.9420 N.3    41  ARG41      -0.1245
      2  CA        18.7250   33.2710   41.0040 C.3    41  ARG41       0.1563
      3  C         18.5000   34.4490   41.9420 C.2    41  ARG41       0.2260
      4  O         19.3810   34.8330   42.7040 O.2    41  ARG41      -0.2867
      5  CB        19.1710   33.7650   39.6180 C.3    41  ARG41       0.0307
      6  CG        18.2120   33.4300   38.4970 C.3    41  ARG41       0.0489
      7  CD        18.8770   33.6040   37.1250 C.3    41  ARG41       0.2205
      8  NE        17.9020   34.0740   36.1460 N.pl3  41  ARG41      -0.0865
      9  CZ        16.9850   33.3090   35.5550 C.cat  41  ARG41       0.5346
     10  NH1       16.9120   32.0000   35.8310 N.pl3  41  ARG41       0.1354
     11  NH2       16.1200   33.8610   34.7090 N.pl3  41  ARG41       0.1354
     12  N         19.1380   33.3260   45.3570 N.3    44  LEU44      -0.1231
     13  CA        20.5370   33.2390   45.7560 C.3    44  LEU44       0.1693
     14  C         21.1740   34.6020   46.0510 C.2    44  LEU44       0.2591
     15  O         21.9590   34.7280   46.9770 O.2    44  LEU44      -0.2718
     16  CB        21.3330   32.4810   44.6920 C.3    44  LEU44       0.0284
     17  CG        22.8170   32.1960   44.7680 C.3    44  LEU44       0.0019
     18  CD1       23.2940   31.6220   46.1110 C.3    44  LEU44       0.0001
     19  CD2       23.0620   31.2200   43.6030 C.3    44  LEU44       0.0001
     20  N         20.8370   35.6300   45.2780 N.am   45  ILE45      -0.1980
     21  CA        21.3950   36.9660   45.5100 C.3    45  ILE45       0.1595
     22  C         20.8320   37.4870   46.8670 C.2    45  ILE45       0.2287
     23  O         21.5660   38.0190   47.6970 O.2    45  ILE45      -0.2864
     24  CB        20.9980   37.9090   44.3460 C.3    45  ILE45       0.0276
     25  CG1       21.6140   37.3820   43.0240 C.3    45  ILE45       0.0022
     26  CG2       21.4990   39.3170   44.5910 C.3    45  ILE45       0.0022
     27  CD1       21.0710   38.0420   41.7480 C.3    45  ILE45       0.0001
     28  N         22.6330   35.7490   49.7600 N.3    48  ILE48      -0.1245
     29  CA        23.9990   36.2280   49.9110 C.3    48  ILE48       0.1561
     30  C         23.9550   37.6410   50.4600 C.2    48  ILE48       0.2260
     31  O         24.8730   38.0690   51.1250 O.2    48  ILE48      -0.2867
     32  CB        24.7720   36.2710   48.5550 C.3    48  ILE48       0.0252
     33  CG1       24.8520   34.8720   47.9770 C.3    48  ILE48       0.0019
     34  CG2       26.2050   36.7770   48.7740 C.3    48  ILE48       0.0019
     35  CD1       25.6130   33.9490   48.8300 C.3    48  ILE48       0.0001
     36  N         22.8860   40.8960   36.3270 N.3    66  VAL66      -0.1245
     37  CA        23.0720   39.4310   36.3330 C.3    66  VAL66       0.1561
     38  C         22.0440   38.7570   35.4280 C.2    66  VAL66       0.2260
     39  O         22.3880   37.8420   34.6730 O.2    66  VAL66      -0.2867
     40  CB        22.9700   38.9250   37.8380 C.3    66  VAL66       0.0252
     41  CG1       22.6770   37.4610   37.9390 C.3    66  VAL66       0.0019
     42  CG2       24.2150   39.2770   38.5130 C.3    66  VAL66       0.0019
     43  N         23.1360   36.6120   32.1740 N.3    70  HIS70      -0.1241
     44  CA        22.7920   35.1920   32.1820 C.3    70  HIS70       0.1621
     45  C         21.9390   34.8760   30.9790 C.2    70  HIS70       0.2264
     46  O         22.2780   33.9990   30.1770 O.2    70  HIS70      -0.2867
     47  CB        22.0570   34.8320   33.4980 C.3    70  HIS70       0.0745
     48  CG        21.6480   33.3900   33.6260 C.ar   70  HIS70       0.0817
     49  ND1       22.5300   32.3390   33.4910 N.ar   70  HIS70      -0.2268
     50  CD2       20.4450   32.8270   33.8830 C.ar   70  HIS70       0.1154
     51  CE1       21.8910   31.1940   33.6650 C.ar   70  HIS70       0.1986
     52  NE2       20.6280   31.4590   33.9070 N.ar   70  HIS70      -0.2212
     53  N         23.8120   35.1920   27.6720 N.3    73  SER73      -0.1202
     54  CA        24.7970   34.1370   27.4710 C.3    73  SER73       0.2020
     55  C         24.0950   32.8360   27.0770 C.2    73  SER73       0.2618
     56  O         24.6870   32.0610   26.2950 O.2    73  SER73      -0.2717
     57  CB        25.7310   34.0030   28.6930 C.3    73  SER73       0.2103
     58  OG        25.0400   33.3980   29.7420 O.3    73  SER73      -0.2182
     59  N         22.8630   32.5830   27.5730 N.am   74  LEU74      -0.1979
     60  CA        22.1400   31.3780   27.1890 C.3    74  LEU74       0.1596
     61  C         21.5910   31.5230   25.7750 C.2    74  LEU74       0.2287
     62  O         21.5130   30.5540   25.0370 O.2    74  LEU74      -0.2864
     63  CB        20.9680   31.0850   28.1230 C.3    74  LEU74       0.0297
     64  CG        21.3330   30.7960   29.5850 C.3    74  LEU74       0.0022
     65  CD1       20.0720   30.4160   30.3340 C.3    74  LEU74       0.0001
     66  CD2       22.4160   29.6950   29.6510 C.3    74  LEU74       0.0001
     67  N         24.6600   30.7380   23.8030 N.3    77  ASP77      -0.1225
     68  CA        25.0090   29.3310   24.0290 C.3    77  ASP77       0.1805
     69  C         24.1310   28.3650   23.2330 C.2    77  ASP77       0.2597
     70  O         24.6330   27.3370   22.7170 O.2    77  ASP77      -0.2718
     71  CB        24.9210   28.9820   25.5110 C.3    77  ASP77       0.1424
     72  CG        25.3570   27.5330   25.7660 C.2    77  ASP77       0.3668
     73  OD1       24.4560   26.6490   25.9430 O.co2  77  ASP77      -0.2456
     74  OD2       26.6150   27.3570   25.7210 O.co2  77  ASP77      -0.2456
     75  N         22.8120   28.6420   23.1540 N.am   78  ASP78      -0.1974
     76  CA        21.9500   27.7820   22.3960 C.3    78  ASP78       0.1709
     77  C         22.2360   27.7850   20.9120 C.2    78  ASP78       0.2293
     78  O         22.0130   26.7860   20.2490 O.2    78  ASP78      -0.2864
     79  CB        20.4460   28.0770   22.7490 C.3    78  ASP78       0.1436
     80  CG        20.0990   27.6190   24.1570 C.2    78  ASP78       0.3671
     81  OD1       20.7400   26.6230   24.6440 O.co2  78  ASP78      -0.2456
     82  OD2       19.1720   28.2060   24.7990 O.co2  78  ASP78      -0.2456
     83  N         25.3800   25.7060   20.5950 N.3    81  ASP81      -0.1239
     84  CA        25.1560   24.2960   20.9060 C.3    81  ASP81       0.1674
     85  C         24.0510   23.6540   20.0640 C.2    81  ASP81       0.2266
     86  O         23.7590   22.4730   20.2610 O.2    81  ASP81      -0.2867
     87  CB        24.8780   24.1250   22.4480 C.3    81  ASP81       0.1410
     88  CG        26.0240   24.6120   23.2740 C.2    81  ASP81       0.3668
     89  OD1       27.0800   24.9390   22.6710 O.co2  81  ASP81      -0.2456
     90  OD2       25.9390   24.7430   24.5170 O.co2  81  ASP81      -0.2456
     91  N         15.1070   24.9900   25.5470 N.3    86  ARG86      -0.1245
     92  CA        15.7330   25.5490   26.7410 C.3    86  ARG86       0.1563
     93  C         14.5610   25.6330   27.7840 C.2    86  ARG86       0.2260
     94  O         13.5790   26.3400   27.5810 O.2    86  ARG86      -0.2867
     95  CB        16.3880   26.8980   26.3510 C.3    86  ARG86       0.0307
     96  CG        16.7070   27.9470   27.4270 C.3    86  ARG86       0.0489
     97  CD        17.9190   27.7000   28.2870 C.3    86  ARG86       0.2205
     98  NE        19.1760   27.5870   27.5280 N.pl3  86  ARG86      -0.0865
     99  CZ        20.2570   27.0300   28.0550 C.cat  86  ARG86       0.5346
    100  NH1       20.2200   26.5780   29.3150 N.pl3  86  ARG86       0.1354
    101  NH2       21.3870   26.9150   27.3350 N.pl3  86  ARG86       0.1354
    102  N         34.2910   33.9720   31.3010 N.3   140  LEU140     -0.1245
    103  CA        33.2130   33.2070   30.7200 C.3   140  LEU140      0.1561
    104  C         33.5130   32.8370   29.2230 C.2   140  LEU140      0.2260
    105  O         33.2750   31.7130   28.8010 O.2   140  LEU140     -0.2867
    106  CB        31.8780   34.0220   30.7950 C.3   140  LEU140      0.0270
    107  CG        30.5680   33.4530   30.1850 C.3   140  LEU140      0.0019
    108  CD1       30.5130   32.0480   30.4200 C.3   140  LEU140      0.0001
    109  CD2       29.3380   34.0180   30.9350 C.3   140  LEU140      0.0001
    110  N         33.8530   29.1270   27.6070 N.3   144  GLN144     -0.1245
    111  CA        32.9470   28.7210   26.5320 C.3   144  GLN144      0.1566
    112  C         33.7980   28.3310   25.3150 C.2   144  GLN144      0.2260
    113  O         33.4720   27.4140   24.6080 O.2   144  GLN144     -0.2867
    114  CB        32.0930   29.9380   26.1730 C.3   144  GLN144      0.0367
    115  CG        30.9020   29.5710   25.4470 C.3   144  GLN144      0.0905
    116  CD        29.7220   29.0690   26.3380 C.2   144  GLN144      0.2608
    117  OE1       28.6000   29.3180   25.9620 O.2   144  GLN144     -0.2717
    118  NE2       29.9740   28.2960   27.4090 N.am  144  GLN144     -0.0878
    119  N         35.2230   24.8590   25.7040 N.3   147  ASP147     -0.1239
    120  CA        34.1750   23.8660   25.6460 C.3   147  ASP147      0.1674
    121  C         33.8230   23.6290   24.1480 C.2   147  ASP147      0.2266
    122  O         33.6700   22.5000   23.6550 O.2   147  ASP147     -0.2867
    123  CB        32.9680   24.4200   26.4590 C.3   147  ASP147      0.1410
    124  CG        31.9670   23.3650   26.8650 C.2   147  ASP147      0.3668
    125  OD1       32.3180   22.1680   26.9220 O.co2 147  ASP147     -0.2456
    126  OD2       30.8010   23.7350   27.1940 O.co2 147  ASP147     -0.2456
    127  N         34.2040   29.0600   32.4750 N.3   171  LYS171     -0.1231
    128  CA        32.8700   29.0830   31.8690 C.3   171  LYS171      0.1693
    129  C         31.6800   29.3450   32.8180 C.2   171  LYS171      0.2592
    130  O         30.8670   30.2600   32.6040 O.2   171  LYS171     -0.2718
    131  CB        32.5940   27.7470   31.1780 C.3   171  LYS171      0.0285
    132  CG        31.1550   27.7400   30.5470 C.3   171  LYS171      0.0035
    133  CD        30.8480   26.4580   29.7590 C.3   171  LYS171      0.0206
    134  CE        30.4660   25.2660   30.6550 C.3   171  LYS171      0.1093
    135  NZ        30.0920   24.0020   29.8850 N.3   171  LYS171     -0.1314
    136  N         31.5800   28.5380   33.8580 N.am  172  THR172     -0.1953
    137  CA        30.3890   28.6070   34.7390 C.3   172  THR172      0.1897
    138  C         30.7400   29.4940   35.9270 C.2   172  THR172      0.2313
    139  O         29.8900   30.2290   36.4420 O.2   172  THR172     -0.2863
    140  CB        30.0400   27.1560   35.2220 C.3   172  THR172      0.1794
    141  OG1       30.0810   26.2900   34.0770 O.3   172  THR172     -0.2208
    142  CG2       28.6420   27.0740   35.8490 C.3   172  THR172      0.0378
    143  N         30.0160   34.0280   35.7950 N.3   175  LEU175     -0.1231
    144  CA        28.9030   34.8490   36.3050 C.3   175  LEU175      0.1693
    145  C         28.6720   34.6520   37.7980 C.2   175  LEU175      0.2592
    146  O         28.1130   35.5400   38.4770 O.2   175  LEU175     -0.2718
    147  CB        27.6080   34.5160   35.5650 C.3   175  LEU175      0.0284
    148  CG        27.6590   34.8620   34.0650 C.3   175  LEU175      0.0019
    149  CD1       26.2380   34.6300   33.4570 C.3   175  LEU175      0.0001
    150  CD2       28.1270   36.3250   33.8900 C.3   175  LEU175      0.0001
    151  N         29.0790   33.4900   38.3280 N.am  176  PHE176     -0.1976
    152  CA        28.9270   33.2910   39.7910 C.3   176  PHE176      0.1639
    153  C         29.8830   34.2710   40.4480 C.2   176  PHE176      0.2290
    154  O         29.5050   35.0350   41.3770 O.2   176  PHE176     -0.2864
    155  CB        29.2320   31.8170   40.2400 C.3   176  PHE176      0.0560
    156  CG        28.0730   30.8500   40.0850 C.ar  176  PHE176     -0.0200
    157  CD1       27.1000   30.7590   41.0600 C.ar  176  PHE176     -0.0042
    158  CD2       27.9320   30.0520   38.9600 C.ar  176  PHE176     -0.0042
    159  CE1       26.0250   29.9060   40.9030 C.ar  176  PHE176     -0.0003
    160  CE2       26.8510   29.2000   38.8100 C.ar  176  PHE176     -0.0003
    161  CZ        25.9040   29.1260   39.7740 C.ar  176  PHE176     -0.0000
    162  N         28.7970   38.1490   39.9850 N.3   179  THR179     -0.1203
    163  CA        27.6920   38.5480   40.8740 C.3   179  THR179      0.1994
    164  C         28.2320   38.7390   42.2930 C.2   179  THR179      0.2617
    165  O         28.0370   39.7940   42.9190 O.2   179  THR179     -0.2717
    166  CB        26.6020   37.4700   40.9050 C.3   179  THR179      0.1784
    167  OG1       26.1070   37.2160   39.5750 O.3   179  THR179     -0.2211
    168  CG2       25.4320   37.9180   41.7670 C.3   179  THR179      0.0376
    169  N         28.9390   37.7340   42.8050 N.am  180  LEU180     -0.1979
    170  CA        29.4720   37.8570   44.1760 C.3   180  LEU180      0.1596
    171  C         30.5160   38.9370   44.3430 C.2   180  LEU180      0.2287
    172  O         30.4870   39.6590   45.3600 O.2   180  LEU180     -0.2864
    173  CB        30.0560   36.5160   44.6460 C.3   180  LEU180      0.0297
    174  CG        30.6150   36.5070   46.0880 C.3   180  LEU180      0.0022
    175  CD1       29.4880   36.6430   47.1590 C.3   180  LEU180      0.0001
    176  CD2       31.3450   35.2100   46.2370 C.3   180  LEU180      0.0001
    177  N         28.9000   42.2290   44.6140 N.3   183  MET183     -0.1245
    178  CA        28.2770   42.3940   45.9430 C.3   183  MET183      0.1570
    179  C         29.3230   42.6490   47.0490 C.2   183  MET183      0.2261
    180  O         29.1270   43.5490   47.9260 O.2   183  MET183     -0.2867
    181  CB        27.3930   41.1650   46.2690 C.3   183  MET183      0.0387
    182  CG        26.2060   41.0500   45.3920 C.3   183  MET183      0.0595
    183  SD        25.2510   39.6190   45.6830 S.3   183  MET183     -0.1393
    184  CE        24.6540   39.9700   47.4880 C.3   183  MET183      0.0692
    185  N         31.6840   30.2480   46.1530 N.3   198  ILE198     -0.1245
    186  CA        30.9040   30.4460   44.9030 C.3   198  ILE198      0.1561
    187  C         31.5540   29.6940   43.7070 C.2   198  ILE198      0.2260
    188  O         30.8340   29.2740   42.7970 O.2   198  ILE198     -0.2867
    189  CB        30.7290   31.9800   44.6120 C.3   198  ILE198      0.0252
    190  CG1       29.2710   32.2880   44.2840 C.3   198  ILE198      0.0019
    191  CG2       31.6750   32.4460   43.4930 C.3   198  ILE198      0.0019
    192  CD1       28.3370   32.1760   45.5140 C.3   198  ILE198      0.0001
    193  N         27.2230   23.1290   40.1740 N.3   205  TYR205     -0.1227
    194  CA        26.1240   23.3740   39.2340 C.3   205  TYR205      0.1736
    195  C         26.4240   22.7530   37.8460 C.2   205  TYR205      0.2595
    196  O         25.5270   22.1480   37.2200 O.2   205  TYR205     -0.2718
    197  CB        25.9050   24.9190   39.0840 C.3   205  TYR205      0.0548
    198  CG        25.0140   25.2920   37.9230 C.ar  205  TYR205     -0.0200
    199  CD1       23.6520   25.3980   38.0890 C.ar  205  TYR205     -0.0009
    200  CD2       25.5270   25.3200   36.6100 C.ar  205  TYR205     -0.0009
    201  CE1       22.7810   25.4880   36.9980 C.ar  205  TYR205      0.0417
    202  CE2       24.6670   25.4010   35.5010 C.ar  205  TYR205      0.0417
    203  CZ        23.2890   25.4690   35.7020 C.ar  205  TYR205      0.1957
    204  OH        22.4090   25.3910   34.6160 O.3   205  TYR205     -0.2866
    205  N         27.6560   22.8860   37.3750 N.am  206  GLN206     -0.1979
    206  CA        27.8980   22.4180   35.9850 C.3   206  GLN206      0.1601
    207  C         27.9660   20.8990   35.8790 C.2   206  GLN206      0.2287
    208  O         27.4920   20.3200   34.9180 O.2   206  GLN206     -0.2864
    209  CB        29.1840   23.0420   35.4630 C.3   206  GLN206      0.0394
    210  CG        29.3620   22.7200   33.9410 C.3   206  GLN206      0.0908
    211  CD        28.2980   23.4030   33.1380 C.2   206  GLN206      0.2608
    212  OE1       28.1660   24.6330   33.2360 O.2   206  GLN206     -0.2717
    213  NE2       27.5590   22.6610   32.3360 N.am  206  GLN206     -0.0878
    214  N         24.4660   19.7010   35.9530 N.3   209  ASP209     -0.1239
    215  CA        23.8060   19.9830   34.6930 C.3   209  ASP209      0.1674
    216  C         24.1700   18.8410   33.7010 C.2   209  ASP209      0.2266
    217  O         23.2950   18.2210   33.0600 O.2   209  ASP209     -0.2867
    218  CB        24.3080   21.3700   34.1750 C.3   209  ASP209      0.1410
    219  CG        23.7450   21.7530   32.8230 C.2   209  ASP209      0.3668
    220  OD1       22.5480   21.4400   32.5880 O.co2 209  ASP209     -0.2456
    221  OD2       24.4740   22.3920   32.0010 O.co2 209  ASP209     -0.2456
    222  N         22.8270   16.6350   25.1580 N.3   222  ASP222     -0.1239
    223  CA        24.3000   16.7720   25.1760 C.3   222  ASP222      0.1674
    224  C         24.9820   15.7360   24.2680 C.2   222  ASP222      0.2266
    225  O         26.1000   15.9410   23.8030 O.2   222  ASP222     -0.2867
    226  CB        24.8570   16.6100   26.5980 C.3   222  ASP222      0.1410
    227  CG        24.5890   17.8410   27.4770 C.2   222  ASP222      0.3668
    228  OD1       24.0360   18.8430   26.9520 O.co2 222  ASP222     -0.2456
    229  OD2       24.9300   17.8530   28.6930 O.co2 222  ASP222     -0.2456
    230  N         24.7590   17.0660   20.8100 N.3   225  GLU225     -0.1245
    231  CA        25.6620   18.2150   20.7430 C.3   225  GLU225      0.1567
    232  C         27.1180   17.7230   20.5590 C.2   225  GLU225      0.2260
    233  O         27.9420   18.4040   19.9260 O.2   225  GLU225     -0.2867
    234  CB        25.6010   19.0100   22.0610 C.3   225  GLU225      0.0388
    235  CG        26.5300   20.2850   22.0070 C.3   225  GLU225      0.1160
    236  CD        26.5660   21.0830   23.2580 C.2   225  GLU225      0.3649
    237  OE1       25.5710   21.0600   24.0090 O.co2 225  GLU225     -0.2457
    238  OE2       27.5780   21.7650   23.5070 O.co2 225  GLU225     -0.2457
    239  N         29.0300   17.1720   23.1770 N.3   227  LYS227     -0.1245
    240  CA        29.6990   17.8910   24.2920 C.3   227  LYS227      0.1561
    241  C         30.6450   17.0390   25.1430 C.2   227  LYS227      0.2260
    242  O         30.2920   15.8920   25.4410 O.2   227  LYS227     -0.2867
    243  CB        28.5740   18.4340   25.1820 C.3   227  LYS227      0.0271
    244  CG        29.0170   19.4640   26.1900 C.3   227  LYS227      0.0035
    245  CD        27.7840   19.9080   27.0000 C.3   227  LYS227      0.0206
    246  CE        28.1840   20.9450   27.9970 C.3   227  LYS227      0.1093
    247  NZ        26.9620   21.7280   28.4310 N.3   227  LYS227     -0.1314
@<TRIPOS>BOND
     1   233   232    2
     2    85    86    2
     3    85    84    1
     4    78    77    2
     5   232   231    1
     6    83    84    1
     7   231   230    1
     8   231   234    1
     9    84    87    1
    10    77    76    1
    11   235   234    1
    12   235   236    1
    13    76    79    1
    14    76    75    1
    15    87    88    1
    16    89    88   ar
    17    70    69    2
    18    79    80    1
    19    75    69   am
    20   239   240    1
    21    69    68    1
    22   236   238   ar
    23   236   237   ar
    24    88    90   ar
    25   122   121    2
    26   225   224    2
    27    67    68    1
    28    68    71    1
    29   121   120    1
    30    80    81   ar
    31    80    82   ar
    32   224   223    1
    33   240   241    1
    34   240   243    1
    35   113   112    2
    36    62    61    2
    37   241   242    2
    38   222   223    1
    39   223   226    1
    40   243   244    1
    41   112   111    1
    42   115   114    1
    43   115   116    1
    44    71    72    1
    45    91    92    1
    46   120   119    1
    47   120   123    1
    48    74    72   ar
    49    72    73   ar
    50    61    60    1
    51   117   116    2
    52   114   111    1
    53   244   245    1
    54    56    55    2
    55   116   118   am
    56    95    92    1
    57    95    96    1
    58   123   124    1
    59   111   110    1
    60   226   227    1
    61    92    93    1
    62   124   125   ar
    63   124   126   ar
    64   228   227   ar
    65   245   246    1
    66    55    54    1
    67    55    59   am
    68    60    59    1
    69    60    63    1
    70   101    99    1
    71    96    97    1
    72    54    53    1
    73    54    57    1
    74   227   229   ar
    75    98    99    2
    76    98    97    1
    77    94    93    2
    78   246   247    1
    79    99   100    1
    80    63    64    1
    81    57    58    1
    82   105   104    2
    83   104   103    1
    84    64    66    1
    85    64    65    1
    86   133   132    1
    87   133   134    1
    88   135   134    1
    89    46    45    2
    90   107   108    1
    91   107   106    1
    92   107   109    1
    93   132   131    1
    94   103   106    1
    95   103   102    1
    96    45    44    1
    97   131   128    1
    98   128   127    1
    99   128   129    1
   100   221   219   ar
   101    43    44    1
   102    44    47    1
   103   213   211   am
   104   220   219   ar
   105   130   129    2
   106   129   136   am
   107   219   218    1
   108   217   216    2
   109   211   212    2
   110   211   210    1
   111   149   148    1
   112    49    48   ar
   113    49    51   ar
   114    47    48    1
   115    48    50   ar
   116    51    52   ar
   117   216   215    1
   118   136   137    1
   119    50    52   ar
   120   150   148    1
   121   210   209    1
   122   148   147    1
   123   141   140    1
   124   218   215    1
   125   204   203    1
   126    39    38    2
   127   215   214    1
   128    11     9    1
   129   137   140    1
   130   137   138    1
   131   208   207    2
   132   140   142    1
   133    38    37    1
   134   209   206    1
   135   202   203   ar
   136   202   200   ar
   137     9    10    1
   138     9     8    2
   139   147   144    1
   140   203   201   ar
   141   143   144    1
   142   207   206    1
   143   138   139    2
   144   206   205    1
   145     8     7    1
   146   144   145    1
   147    36    37    1
   148    37    40    1
   149   200   198   ar
   150   201   199   ar
   151     7     6    1
   152   196   195    2
   153   205   195   am
   154   145   151   am
   155   145   146    2
   156    40    41    1
   157    40    42    1
   158   195   194    1
   159   198   199   ar
   160   198   197    1
   161   151   152    1
   162     6     5    1
   163   160   158   ar
   164   160   161   ar
   165   158   156   ar
   166   197   194    1
   167   194   193    1
   168   167   166    1
   169     5     2    1
   170   161   159   ar
   171   152   155    1
   172   152   153    1
   173   162   163    1
   174   156   155    1
   175   156   157   ar
   176   153   154    2
   177   163   166    1
   178   163   164    1
   179   159   157   ar
   180   166   168    1
   181     1     2    1
   182     2     3    1
   183    27    25    1
   184     3     4    2
   185   164   169   am
   186   164   165    2
   187   188   187    2
   188   169   170    1
   189    25    24    1
   190   191   189    1
   191    19    17    1
   192   187   186    1
   193   170   171    1
   194   170   173    1
   195   190   189    1
   196   190   192    1
   197   171   172    2
   198    24    26    1
   199    24    21    1
   200   189   186    1
   201   177   178    1
   202   173   174    1
   203    16    17    1
   204    16    13    1
   205    17    18    1
   206   186   185    1
   207    20    21    1
   208    20    14   am
   209    12    13    1
   210   182   183    1
   211   182   181    1
   212    21    22    1
   213   183   184    1
   214    13    14    1
   215   178   181    1
   216   178   179    1
   217    14    15    2
   218   174   176    1
   219   174   175    1
   220    22    23    2
   221   179   180    2
   222    33    32    1
   223    33    35    1
   224    32    34    1
   225    32    29    1
   226    28    29    1
   227    29    30    1
   228    30    31    2
