@<TRIPOS>MOLECULE
tmp/2z4wA00.pdb
 232 219 0 0 0
SMALL
GASTEIGER

@<TRIPOS>ATOM
      1  N         42.4330   51.9590    7.8930 N.3    38  ARG38      -0.1245
      2  CA        41.7070   52.2670    9.1190 C.3    38  ARG38       0.1563
      3  C         42.6470   53.0950   10.0120 C.2    38  ARG38       0.2260
      4  O         42.2050   53.7900   10.9280 O.2    38  ARG38      -0.2867
      5  CB        41.2910   50.9740    9.8430 C.3    38  ARG38       0.0307
      6  CG        39.8830   51.0180   10.4440 C.3    38  ARG38       0.0489
      7  CD        39.6680   52.2830   11.2820 C.3    38  ARG38       0.2205
      8  NE        38.2570   52.5600   11.5500 N.pl3  38  ARG38      -0.0865
      9  CZ        37.7960   53.7240   12.0030 C.cat  38  ARG38       0.5346
     10  NH1       38.6330   54.7220   12.2410 N.pl3  38  ARG38       0.1354
     11  NH2       36.4970   53.8940   12.2110 N.pl3  38  ARG38       0.1354
     12  N         43.0020   57.0280    8.5510 N.3    41  LEU41      -0.1245
     13  CA        41.9670   57.9290    9.0390 C.3    41  LEU41       0.1561
     14  C         42.3180   58.3710   10.4660 C.2    41  LEU41       0.2260
     15  O         42.0830   59.5180   10.8490 O.2    41  LEU41      -0.2867
     16  CB        40.6090   57.2210    9.0270 C.3    41  LEU41       0.0270
     17  CG        39.4040   58.0130    9.5420 C.3    41  LEU41       0.0019
     18  CD1       39.1250   59.2030    8.6330 C.3    41  LEU41       0.0001
     19  CD2       38.1950   57.0970    9.6130 C.3    41  LEU41       0.0001
     20  N         36.4590   46.4590   15.3200 N.3    67  HIS67      -0.1241
     21  CA        36.1250   46.3920   13.9120 C.3    67  HIS67       0.1621
     22  C         36.1760   44.9690   13.3820 C.2    67  HIS67       0.2264
     23  O         35.1950   44.4750   12.8120 O.2    67  HIS67      -0.2867
     24  CB        37.0790   47.2790   13.1150 C.3    67  HIS67       0.0745
     25  CG        36.7410   47.3870   11.6620 C.ar   67  HIS67       0.0817
     26  ND1       35.5310   47.8690   11.2100 N.ar   67  HIS67      -0.2268
     27  CD2       37.4740   47.1230   10.5560 C.ar   67  HIS67       0.1154
     28  CE1       35.5330   47.9000    9.8890 C.ar   67  HIS67       0.1986
     29  NE2       36.7030   47.4550    9.4660 N.ar   67  HIS67      -0.2212
     30  N         33.3950   42.8650   14.6960 N.3    70  SER70      -0.1202
     31  CA        32.1470   43.2470   14.0590 C.3    70  SER70       0.2020
     32  C         32.0100   42.5150   12.7330 C.2    70  SER70       0.2618
     33  O         30.9320   42.0420   12.3840 O.2    70  SER70      -0.2717
     34  CB        32.1480   44.7420   13.7260 C.3    70  SER70       0.2103
     35  OG        32.2410   45.5150   14.8860 O.3    70  SER70      -0.2182
     36  N         33.1010   42.4680   11.9750 N.am   71  LEU71      -0.1979
     37  CA        33.0600   41.8120   10.6850 C.3    71  LEU71       0.1596
     38  C         32.8720   40.3130   10.8680 C.2    71  LEU71       0.2287
     39  O         32.1280   39.6910   10.1190 O.2    71  LEU71      -0.2864
     40  CB        34.3240   42.1000    9.8890 C.3    71  LEU71       0.0297
     41  CG        34.7110   43.5530    9.5620 C.3    71  LEU71       0.0022
     42  CD1       36.0430   43.5140    8.8000 C.3    71  LEU71       0.0001
     43  CD2       33.6500   44.2580    8.7210 C.3    71  LEU71       0.0001
     44  N         31.2000   38.8120   13.0840 N.3    73  ILE73      -0.1231
     45  CA        29.7920   38.5970   13.3670 C.3    73  ILE73       0.1692
     46  C         28.8540   39.0070   12.2470 C.2    73  ILE73       0.2592
     47  O         27.9210   38.2890   11.9310 O.2    73  ILE73      -0.2718
     48  CB        29.3750   39.3170   14.6870 C.3    73  ILE73       0.0266
     49  CG1       29.9910   38.5670   15.8760 C.3    73  ILE73       0.0019
     50  CG2       27.8350   39.3360   14.8260 C.3    73  ILE73       0.0020
     51  CD1       29.5820   39.0670   17.1850 C.3    73  ILE73       0.0001
     52  N         29.1000   40.1600   11.6420 N.am   74  ASP74      -0.1960
     53  CA        28.2360   40.6030   10.5620 C.3    74  ASP74       0.1840
     54  C         28.2140   39.5330    9.4880 C.2    74  ASP74       0.2622
     55  O         27.1990   39.3260    8.8210 O.2    74  ASP74      -0.2715
     56  CB        28.7220   41.9120    9.9470 C.3    74  ASP74       0.1450
     57  CG        27.9200   42.2940    8.7360 C.2    74  ASP74       0.3671
     58  OD1       26.7900   42.7900    8.9180 O.co2  74  ASP74      -0.2456
     59  OD2       28.3980   42.0730    7.5970 O.co2  74  ASP74      -0.2456
     60  N         29.3280   38.8330    9.3200 N.am   75  ASP75      -0.1971
     61  CA        29.3350   37.8010    8.2980 C.3    75  ASP75       0.1709
     62  C         28.4260   36.6300    8.6370 C.2    75  ASP75       0.2293
     63  O         27.7740   36.0640    7.7580 O.2    75  ASP75      -0.2864
     64  CB        30.7610   37.3540    7.9960 C.3    75  ASP75       0.1436
     65  CG        31.5200   38.3990    7.1780 C.2    75  ASP75       0.3671
     66  OD1       30.8280   39.1810    6.4800 O.co2  75  ASP75      -0.2456
     67  OD2       32.7790   38.4410    7.2190 O.co2  75  ASP75      -0.2456
     68  N         25.7150   36.8170   10.5730 N.3    77  GLU77      -0.1231
     69  CA        24.4090   37.4140   10.4330 C.3    77  GLU77       0.1699
     70  C         23.9140   37.6100    8.9990 C.2    77  GLU77       0.2592
     71  O         22.7120   37.5300    8.7330 O.2    77  GLU77      -0.2718
     72  CB        24.4160   38.7420   11.1860 C.3    77  GLU77       0.0402
     73  CG        24.6030   38.5540   12.6840 C.3    77  GLU77       0.1161
     74  CD        24.9000   39.8360   13.4160 C.2    77  GLU77       0.3649
     75  OE1       24.6660   39.9050   14.6480 O.co2  77  GLU77      -0.2457
     76  OE2       25.3850   40.7760   12.7660 O.co2  77  GLU77      -0.2457
     77  N         24.8450   37.8580    8.0830 N.am   78  ASP78      -0.1974
     78  CA        24.5230   38.0860    6.6790 C.3    78  ASP78       0.1709
     79  C         24.7500   36.8460    5.8230 C.2    78  ASP78       0.2293
     80  O         24.5600   36.8770    4.6140 O.2    78  ASP78      -0.2864
     81  CB        25.3810   39.2270    6.1240 C.3    78  ASP78       0.1436
     82  CG        25.1270   40.5550    6.8290 C.2    78  ASP78       0.3671
     83  OD1       24.2340   40.6010    7.7010 O.co2  78  ASP78      -0.2456
     84  OD2       25.8180   41.5570    6.5120 O.co2  78  ASP78      -0.2456
     85  N         34.9780   37.3260    2.4560 N.3    83  ARG83      -0.1245
     86  CA        35.2570   38.6210    3.0670 C.3    83  ARG83       0.1563
     87  C         36.6670   38.9120    2.5760 C.2    83  ARG83       0.2260
     88  O         37.5790   38.1210    2.8020 O.2    83  ARG83      -0.2867
     89  CB        35.2320   38.5240    4.6010 C.3    83  ARG83       0.0307
     90  CG        35.9370   39.6670    5.3600 C.3    83  ARG83       0.0489
     91  CD        35.1790   40.9850    5.3070 C.3    83  ARG83       0.2205
     92  NE        33.8640   40.9130    5.9520 N.pl3  83  ARG83      -0.0865
     93  CZ        32.9430   41.8830    5.9180 C.cat  83  ARG83       0.5346
     94  NH1       33.1780   43.0170    5.2750 N.pl3  83  ARG83       0.1354
     95  NH2       31.7710   41.7180    6.5230 N.pl3  83  ARG83       0.1354
     96  N         35.5150   41.5660   21.9600 N.3   106  TYR106     -0.1241
     97  CA        34.8180   42.8040   22.3440 C.3   106  TYR106      0.1605
     98  C         35.2740   43.1560   23.7520 C.2   106  TYR106      0.2264
     99  O         35.5050   44.3220   24.0790 O.2   106  TYR106     -0.2867
    100  CB        33.2870   42.6270   22.4020 C.3   106  TYR106      0.0534
    101  CG        32.5820   42.6930   21.0760 C.ar  106  TYR106     -0.0201
    102  CD1       31.2580   42.2850   20.9550 C.ar  106  TYR106     -0.0009
    103  CD2       33.2420   43.1420   19.9300 C.ar  106  TYR106     -0.0009
    104  CE1       30.6020   42.3140   19.7380 C.ar  106  TYR106      0.0417
    105  CE2       32.5940   43.1750   18.6950 C.ar  106  TYR106      0.0417
    106  CZ        31.2730   42.7570   18.6170 C.ar  106  TYR106      0.1957
    107  OH        30.6220   42.7950   17.4220 O.3   106  TYR106     -0.2866
    108  N         25.8060   50.9270   17.8740 N.3   137  LEU137     -0.1231
    109  CA        26.1460   49.9870   16.8270 C.3   137  LEU137      0.1693
    110  C         25.1320   48.8550   16.7950 C.2   137  LEU137      0.2592
    111  O         24.5760   48.5690   15.7520 O.2   137  LEU137     -0.2718
    112  CB        27.5470   49.4240   17.0540 C.3   137  LEU137      0.0284
    113  CG        28.0810   48.4120   16.0310 C.3   137  LEU137      0.0019
    114  CD1       28.2250   49.0550   14.6540 C.3   137  LEU137      0.0001
    115  CD2       29.4220   47.9100   16.4930 C.3   137  LEU137      0.0001
    116  N         24.8650   48.2210   17.9330 N.am  138  HIS138     -0.1976
    117  CA        23.9090   47.1120   17.9470 C.3   138  HIS138      0.1656
    118  C         22.4690   47.4830   17.5950 C.2   138  HIS138      0.2291
    119  O         21.7210   46.6690   17.0640 O.2   138  HIS138     -0.2864
    120  CB        23.9980   46.3910   19.2890 C.3   138  HIS138      0.0771
    121  CG        25.3070   45.6880   19.4700 C.ar  138  HIS138      0.0820
    122  ND1       25.4850   44.3520   19.1700 N.ar  138  HIS138     -0.2267
    123  CD2       26.5430   46.1780   19.7260 C.ar  138  HIS138      0.1154
    124  CE1       26.7700   44.0570   19.2210 C.ar  138  HIS138      0.1986
    125  NE2       27.4310   45.1490   19.5530 N.ar  138  HIS138     -0.2212
    126  N         22.2920   47.7830   13.6760 N.3   141  GLN141     -0.1245
    127  CA        22.4800   46.4470   13.1490 C.3   141  GLN141      0.1566
    128  C         21.2020   45.6260   13.3930 C.2   141  GLN141      0.2260
    129  O         20.8210   44.8160   12.5540 O.2   141  GLN141     -0.2867
    130  CB        23.7000   45.8070   13.8420 C.3   141  GLN141      0.0367
    131  CG        24.0120   44.3830   13.4270 C.3   141  GLN141      0.0905
    132  CD        24.7080   44.2910   12.0900 C.2   141  GLN141      0.2608
    133  OE1       24.8640   45.2790   11.3990 O.2   141  GLN141     -0.2717
    134  NE2       25.1280   43.0980   11.7220 N.am  141  GLN141     -0.0878
    135  N         18.7040   46.9010   10.6670 N.3   144  ASP144     -0.1239
    136  CA        19.0300   46.3980    9.3510 C.3   144  ASP144      0.1674
    137  C         18.6810   44.8980    9.2530 C.2   144  ASP144      0.2266
    138  O         18.0870   44.4430    8.2670 O.2   144  ASP144     -0.2867
    139  CB        20.4940   46.6580    9.0280 C.3   144  ASP144      0.1410
    140  CG        20.7130   46.8370    7.5540 C.2   144  ASP144      0.3668
    141  OD1       19.8250   47.4290    6.9010 O.co2 144  ASP144     -0.2456
    142  OD2       21.7570   46.3990    7.0320 O.co2 144  ASP144     -0.2456
    143  N         24.2980   52.4210   13.1780 N.3   168  LYS168     -0.1231
    144  CA        25.2460   51.3760   12.7960 C.3   168  LYS168      0.1693
    145  C         26.6040   51.8420   12.3240 C.2   168  LYS168      0.2592
    146  O         27.5980   51.5890   12.9820 O.2   168  LYS168     -0.2718
    147  CB        24.6270   50.4610   11.7310 C.3   168  LYS168      0.0285
    148  CG        25.4650   49.2110   11.3990 C.3   168  LYS168      0.0035
    149  CD        24.8050   48.3630   10.3290 C.3   168  LYS168      0.0206
    150  CE        24.5460   49.1730    9.0560 C.3   168  LYS168      0.1093
    151  NZ        23.7600   48.3790    8.0460 N.3   168  LYS168     -0.1314
    152  N         26.6660   52.4930   11.1720 N.am  169  THR169     -0.1953
    153  CA        27.9570   52.9660   10.6750 C.3   169  THR169      0.1897
    154  C         28.5020   54.0520   11.5820 C.2   169  THR169      0.2313
    155  O         29.6370   53.9530   12.0560 O.2   169  THR169     -0.2863
    156  CB        27.8470   53.5280    9.2760 C.3   169  THR169      0.1794
    157  OG1       26.9230   52.7370    8.5280 O.3   169  THR169     -0.2208
    158  CG2       29.1950   53.4710    8.5940 C.3   169  THR169      0.0378
    159  N         30.6840   53.0570   14.7900 N.3   172  LEU172     -0.1231
    160  CA        32.1340   52.8800   14.7590 C.3   172  LEU172      0.1693
    161  C         32.9130   54.1400   14.4810 C.2   172  LEU172      0.2592
    162  O         33.9530   54.3740   15.0890 O.2   172  LEU172     -0.2718
    163  CB        32.5390   51.8170   13.7390 C.3   172  LEU172      0.0284
    164  CG        32.4630   50.4050   14.3250 C.3   172  LEU172      0.0019
    165  CD1       33.0900   49.4090   13.3480 C.3   172  LEU172      0.0001
    166  CD2       33.1840   50.3660   15.6850 C.3   172  LEU172      0.0001
    167  N         32.4260   54.9450   13.5540 N.am  173  PHE173     -0.1976
    168  CA        33.0990   56.1890   13.2420 C.3   173  PHE173      0.1639
    169  C         33.1260   57.1300   14.4490 C.2   173  PHE173      0.2290
    170  O         34.1550   57.7310   14.7330 O.2   173  PHE173     -0.2864
    171  CB        32.4030   56.8560   12.0700 C.3   173  PHE173      0.0560
    172  CG        32.7900   56.2960   10.7440 C.ar  173  PHE173     -0.0200
    173  CD1       33.8790   56.8130   10.0520 C.ar  173  PHE173     -0.0042
    174  CD2       32.0610   55.2590   10.1730 C.ar  173  PHE173     -0.0042
    175  CE1       34.2370   56.3070    8.8040 C.ar  173  PHE173     -0.0003
    176  CE2       32.4100   54.7440    8.9270 C.ar  173  PHE173     -0.0003
    177  CZ        33.4980   55.2680    8.2390 C.ar  173  PHE173     -0.0000
    178  N         29.9420   56.7810    3.4120 N.3   201  TYR201     -0.1227
    179  CA        30.5670   55.4570    3.3420 C.3   201  TYR201      0.1736
    180  C         29.5730   54.3310    3.1080 C.2   201  TYR201      0.2595
    181  O         29.7720   53.5100    2.2170 O.2   201  TYR201     -0.2718
    182  CB        31.3410   55.1400    4.6260 C.3   201  TYR201      0.0548
    183  CG        32.0140   53.7730    4.5870 C.ar  201  TYR201     -0.0200
    184  CD1       33.3820   53.6560    4.3550 C.ar  201  TYR201     -0.0009
    185  CD2       31.2660   52.5910    4.7600 C.ar  201  TYR201     -0.0009
    186  CE1       34.0000   52.4060    4.2980 C.ar  201  TYR201      0.0417
    187  CE2       31.8660   51.3300    4.6990 C.ar  201  TYR201      0.0417
    188  CZ        33.2400   51.2450    4.4690 C.ar  201  TYR201      0.1957
    189  OH        33.8530   50.0030    4.4090 O.3   201  TYR201     -0.2866
    190  N         28.5240   54.2880    3.9310 N.am  202  GLN202     -0.1979
    191  CA        27.5060   53.2480    3.8410 C.3   202  GLN202      0.1601
    192  C         26.7090   53.2140    2.5370 C.2   202  GLN202      0.2287
    193  O         26.4630   52.1270    1.9870 O.2   202  GLN202     -0.2864
    194  CB        26.5320   53.3490    5.0170 C.3   202  GLN202      0.0394
    195  CG        25.5560   52.1720    5.1080 C.3   202  GLN202      0.0908
    196  CD        26.2700   50.8420    5.2760 C.2   202  GLN202      0.2608
    197  OE1       26.9680   50.6260    6.2680 O.2   202  GLN202     -0.2717
    198  NE2       26.1080   49.9450    4.3000 N.am  202  GLN202     -0.0878
    199  N         28.9200   51.9720   -0.2070 N.3   205  ASP205     -0.1239
    200  CA        29.1160   50.5190   -0.0420 C.3   205  ASP205      0.1674
    201  C         27.9020   49.8290   -0.6790 C.2   205  ASP205      0.2266
    202  O         28.0420   48.8890   -1.4580 O.2   205  ASP205     -0.2867
    203  CB        29.1940   50.1590    1.4580 C.3   205  ASP205      0.1410
    204  CG        29.2290   48.6350    1.7270 C.2   205  ASP205      0.3668
    205  OD1       28.5980   48.1700    2.7170 O.co2 205  ASP205     -0.2456
    206  OD2       29.8970   47.8930    0.9700 O.co2 205  ASP205     -0.2456
    207  N         24.8090   41.6750   -1.7770 N.3   218  ASP218     -0.1239
    208  CA        23.7720   42.4080   -1.0700 C.3   218  ASP218      0.1674
    209  C         22.3940   42.0150   -1.5480 C.2   218  ASP218      0.2266
    210  O         21.4150   42.2060   -0.8420 O.2   218  ASP218     -0.2867
    211  CB        23.9620   43.9200   -1.2470 C.3   218  ASP218      0.1410
    212  CG        24.9360   44.5170   -0.2400 C.2   218  ASP218      0.3668
    213  OD1       25.6460   43.7400    0.4530 O.co2 218  ASP218     -0.2456
    214  OD2       24.9910   45.7720   -0.1410 O.co2 218  ASP218     -0.2456
    215  N         21.5270   38.5710   -0.0610 N.3   221  GLU221     -0.1245
    216  CA        21.2340   38.7460    1.3650 C.3   221  GLU221      0.1567
    217  C         19.7960   39.2300    1.6060 C.2   221  GLU221      0.2260
    218  O         19.1380   38.7970    2.5500 O.2   221  GLU221     -0.2867
    219  CB        22.2430   39.7360    1.9720 C.3   221  GLU221      0.0388
    220  CG        22.1050   39.9870    3.4650 C.3   221  GLU221      0.1160
    221  CD        23.1110   41.0440    4.0110 C.2   221  GLU221      0.3649
    222  OE1       22.8010   41.6890    5.0560 O.co2 221  GLU221     -0.2457
    223  OE2       24.2060   41.2180    3.4050 O.co2 221  GLU221     -0.2457
    224  N         19.2570   42.4300    1.7760 N.3   223  LYS223     -0.1245
    225  CA        19.5460   43.6990    2.4260 C.3   223  LYS223      0.1561
    226  C         18.7110   44.8670    1.9050 C.2   223  LYS223      0.2260
    227  O         18.5320   45.0240    0.7050 O.2   223  LYS223     -0.2867
    228  CB        21.0470   44.0050    2.2370 C.3   223  LYS223      0.0271
    229  CG        21.5390   45.2620    2.8810 C.3   223  LYS223      0.0035
    230  CD        23.0520   45.3450    2.8370 C.3   223  LYS223      0.0206
    231  CE        23.5050   46.5230    3.6870 C.3   223  LYS223      0.1093
    232  NZ        24.9690   46.6350    3.8170 N.3   223  LYS223     -0.1314
@<TRIPOS>BOND
     1   207   208    1
     2   209   208    1
     3   209   210    2
     4   202   201    2
     5   211   208    1
     6   211   212    1
     7   201   200    1
     8   212   214   ar
     9   212   213   ar
    10   199   200    1
    11   215   216    1
    12   200   203    1
    13   227   226    2
    14   206   204   ar
    15   216   217    1
    16   216   219    1
    17   203   204    1
    18   217   218    2
    19   204   205   ar
    20   224   225    1
    21   226   225    1
    22   219   220    1
    23   193   192    2
    24   181   180    2
    25   228   225    1
    26   228   229    1
    27    85    86    1
    28   192   191    1
    29    87    88    2
    30    87    86    1
    31   230   229    1
    32   230   231    1
    33    86    89    1
    34   180   179    1
    35   180   190   am
    36   179   178    1
    37   179   182    1
    38   223   221   ar
    39   220   221    1
    40   231   232    1
    41   191   190    1
    42   191   194    1
    43   221   222   ar
    44   186   184   ar
    45   186   188   ar
    46   198   196   am
    47   184   183   ar
    48   189   188    1
    49   188   187   ar
    50   183   182    1
    51   183   185   ar
    52    89    90    1
    53    80    79    2
    54   187   185   ar
    55   194   195    1
    56   195   196    1
    57    94    93    1
    58   196   197    2
    59    91    90    1
    60    91    92    1
    61    79    78    1
    62    93    92    2
    63    93    95    1
    64    81    78    1
    65    81    82    1
    66    66    65   ar
    67    84    82   ar
    68    78    77    1
    69    82    83   ar
    70   141   140   ar
    71   142   140   ar
    72    65    67   ar
    73    65    64    1
    74   140   139    1
    75    59    57   ar
    76    63    62    2
    77     1     2    1
    78    64    61    1
    79   151   150    1
    80    77    70   am
    81   177   175   ar
    82   177   176   ar
    83   138   137    2
    84    61    62    1
    85    61    60    1
    86   157   156    1
    87    12    13    1
    88   158   156    1
    89    18    17    1
    90    43    41    1
    91    71    70    2
    92    57    58   ar
    93    57    56    1
    94    42    41    1
    95   175   173   ar
    96    55    54    2
    97   176   174   ar
    98    70    69    1
    99    16    13    1
   100    16    17    1
   101   139   136    1
   102    13    14    1
   103   150   149    1
   104     2     5    1
   105     2     3    1
   106   137   136    1
   107   156   153    1
   108    60    54   am
   109   136   135    1
   110    29    28   ar
   111    29    27   ar
   112    54    53    1
   113    17    19    1
   114    41    40    1
   115     5     6    1
   116    28    26   ar
   117    40    37    1
   118    56    53    1
   119     3     4    2
   120   173   172   ar
   121    39    38    2
   122   174   172   ar
   123   149   148    1
   124    69    68    1
   125    69    72    1
   126     6     7    1
   127    14    15    2
   128    27    25   ar
   129    53    52    1
   130   153   152    1
   131   153   154    1
   132    37    38    1
   133    37    36    1
   134   172   171    1
   135   152   145   am
   136    72    73    1
   137    26    25   ar
   138     7     8    1
   139   148   147    1
   140   133   132    2
   141     8     9    2
   142   154   155    2
   143    52    46   am
   144    25    24    1
   145   134   132   am
   146   147   144    1
   147    47    46    2
   148    36    32   am
   149     9    11    1
   150     9    10    1
   151   171   168    1
   152   132   131    1
   153    46    45    1
   154   145   144    1
   155   145   146    2
   156    33    32    2
   157   129   128    2
   158    73    74    1
   159    32    31    1
   160    76    74   ar
   161   144   143    1
   162    23    22    2
   163    44    45    1
   164    24    21    1
   165   127   128    1
   166   127   126    1
   167   127   130    1
   168   168   167    1
   169   168   169    1
   170   165   164    1
   171    45    48    1
   172    22    21    1
   173    74    75   ar
   174   131   130    1
   175   167   161   am
   176    34    31    1
   177    34    35    1
   178   163   164    1
   179   163   160    1
   180    21    20    1
   181    31    30    1
   182   164   166    1
   183   169   170    2
   184   161   160    1
   185   161   162    2
   186   114   113    1
   187    48    50    1
   188    48    49    1
   189   160   159    1
   190   111   110    2
   191    49    51    1
   192   113   115    1
   193   113   112    1
   194   110   109    1
   195   110   116   am
   196   109   112    1
   197   109   108    1
   198   119   118    2
   199   107   106    1
   200   118   117    1
   201   116   117    1
   202   117   120    1
   203   106   105   ar
   204   106   104   ar
   205   105   103   ar
   206   122   124   ar
   207   122   121   ar
   208   124   125   ar
   209   120   121    1
   210   121   123   ar
   211   125   123   ar
   212   104   102   ar
   213   103   101   ar
   214   102   101   ar
   215   101   100    1
   216    96    97    1
   217    97   100    1
   218    97    98    1
   219    98    99    2
