@<TRIPOS>MOLECULE
tmp/2z4xA00.pdb
 168 158 0 0 0
SMALL
GASTEIGER

@<TRIPOS>ATOM
      1  N        -16.1710   32.9230   62.8020 N.3    65  SER65      -0.1202
      2  CA       -16.7510   31.5690   62.7220 C.3    65  SER65       0.2020
      3  C        -17.2650   31.3290   61.3010 C.2    65  SER65       0.2618
      4  O        -17.2190   30.2310   60.7940 O.2    65  SER65      -0.2717
      5  CB       -17.8540   31.3820   63.7670 C.3    65  SER65       0.2103
      6  OG       -18.9880   32.1800   63.4560 O.3    65  SER65      -0.2182
      7  N        -17.7230   32.3790   60.6230 N.am   66  LEU66      -0.1979
      8  CA       -18.1810   32.1960   59.2500 C.3    66  LEU66       0.1596
      9  C        -17.0320   31.9950   58.2990 C.2    66  LEU66       0.2287
     10  O        -17.1800   31.2610   57.3170 O.2    66  LEU66      -0.2864
     11  CB       -18.9940   33.3950   58.7650 C.3    66  LEU66       0.0297
     12  CG       -20.2410   33.7260   59.6130 C.3    66  LEU66       0.0022
     13  CD1      -20.9250   34.9470   58.9210 C.3    66  LEU66       0.0001
     14  CD2      -21.2150   32.5160   59.6710 C.3    66  LEU66       0.0001
     15  N        -14.3370   30.3970   58.9100 N.3    68  ILE68      -0.1231
     16  CA       -13.9290   28.9730   59.0760 C.3    68  ILE68       0.1692
     17  C        -15.0210   28.1010   58.4970 C.2    68  ILE68       0.2592
     18  O        -14.7220   27.1710   57.7640 O.2    68  ILE68      -0.2718
     19  CB       -13.6940   28.5710   60.6010 C.3    68  ILE68       0.0266
     20  CG1      -12.4500   29.2390   61.1850 C.3    68  ILE68       0.0019
     21  CG2      -13.5600   27.0350   60.7350 C.3    68  ILE68       0.0020
     22  CD1      -11.1470   28.8660   60.5220 C.3    68  ILE68       0.0001
     23  N        -16.2900   28.3730   58.8520 N.am   69  ASP69      -0.1960
     24  CA       -17.3970   27.5910   58.3040 C.3    69  ASP69       0.1840
     25  C        -17.4070   27.5880   56.7610 C.2    69  ASP69       0.2622
     26  O        -17.6700   26.5550   56.1350 O.2    69  ASP69      -0.2715
     27  CB       -18.7690   28.0890   58.8370 C.3    69  ASP69       0.1450
     28  CG       -19.9300   27.2480   58.2960 C.2    69  ASP69       0.3671
     29  OD1      -20.2260   26.1510   58.8950 O.co2  69  ASP69      -0.2456
     30  OD2      -20.5050   27.6980   57.2870 O.co2  69  ASP69      -0.2456
     31  N        -17.0900   28.7230   56.1270 N.am   70  ASP70      -0.1971
     32  CA       -17.0590   28.7150   54.6800 C.3    70  ASP70       0.1709
     33  C        -15.9270   27.8370   54.0850 C.2    70  ASP70       0.2293
     34  O        -16.0940   27.2740   53.0180 O.2    70  ASP70      -0.2864
     35  CB       -16.9780   30.1220   54.0740 C.3    70  ASP70       0.1436
     36  CG       -18.2730   30.9000   54.2630 C.2    70  ASP70       0.3671
     37  OD1      -19.3290   30.2410   54.2690 O.co2  70  ASP70      -0.2456
     38  OD2      -18.2420   32.1700   54.3770 O.co2  70  ASP70      -0.2456
     39  N        -14.8480   25.1390   55.7010 N.3    72  GLU72      -0.1231
     40  CA       -15.3620   23.7870   56.0650 C.3    72  GLU72       0.1699
     41  C        -16.4660   23.3250   55.1150 C.2    72  GLU72       0.2592
     42  O        -16.5690   22.1280   54.7910 O.2    72  GLU72      -0.2718
     43  CB       -15.8650   23.7860   57.5060 C.3    72  GLU72       0.0402
     44  CG       -14.7000   23.8970   58.5070 C.3    72  GLU72       0.1161
     45  CD       -15.1170   24.2500   59.9040 C.2    72  GLU72       0.3649
     46  OE1      -14.2600   24.1410   60.8210 O.co2  72  GLU72      -0.2457
     47  OE2      -16.2980   24.6320   60.1170 O.co2  72  GLU72      -0.2457
     48  N        -17.2670   24.2790   54.6450 N.am   73  ASP73      -0.1974
     49  CA       -18.3550   23.9960   53.7100 C.3    73  ASP73       0.1709
     50  C        -18.0360   24.1670   52.2120 C.2    73  ASP73       0.2293
     51  O        -18.9280   23.9720   51.3780 O.2    73  ASP73      -0.2864
     52  CB       -19.6190   24.8300   54.1410 C.3    73  ASP73       0.1436
     53  CG       -20.0960   24.4710   55.5420 C.2    73  ASP73       0.3671
     54  OD1      -19.5990   23.4600   56.1470 O.co2  73  ASP73      -0.2456
     55  OD2      -20.9580   25.1460   56.1120 O.co2  73  ASP73      -0.2456
     56  N        -20.3550   34.3730   50.1490 N.3    78  ARG78      -0.1245
     57  CA       -20.7950   34.7390   51.4960 C.3    78  ARG78       0.1563
     58  C        -21.1920   36.2360   51.4100 C.2    78  ARG78       0.2260
     59  O        -20.4060   37.0630   50.9310 O.2    78  ARG78      -0.2867
     60  CB       -19.6370   34.5570   52.5160 C.3    78  ARG78       0.0307
     61  CG       -19.8830   35.1840   53.9270 C.3    78  ARG78       0.0489
     62  CD       -21.0460   34.5800   54.7630 C.3    78  ARG78       0.2205
     63  NE       -20.7560   33.2010   55.1620 N.pl3  78  ARG78      -0.0865
     64  CZ       -21.5850   32.4210   55.8270 C.cat  78  ARG78       0.5346
     65  NH1      -22.7700   32.8960   56.1980 N.pl3  78  ARG78       0.1354
     66  NH2      -21.2300   31.1430   56.0730 N.pl3  78  ARG78       0.1354
     67  N        -10.5630   35.0090   67.1070 N.3   101  TYR101     -0.1241
     68  CA       -11.2030   34.3760   68.2650 C.3   101  TYR101      0.1605
     69  C        -10.4260   34.8300   69.5200 C.2   101  TYR101      0.2264
     70  O        -11.0110   35.0510   70.5760 O.2   101  TYR101     -0.2867
     71  CB       -11.0620   32.8130   68.2360 C.3   101  TYR101      0.0534
     72  CG       -11.8930   32.0450   67.2300 C.ar  101  TYR101     -0.0201
     73  CD1      -11.5370   30.7130   66.8850 C.ar  101  TYR101     -0.0009
     74  CD2      -13.0320   32.5820   66.6520 C.ar  101  TYR101     -0.0009
     75  CE1      -12.3220   29.9480   65.9870 C.ar  101  TYR101      0.0417
     76  CE2      -13.8280   31.8130   65.7200 C.ar  101  TYR101      0.0417
     77  CZ       -13.4360   30.4900   65.4170 C.ar  101  TYR101      0.1957
     78  OH       -14.1660   29.7160   64.5250 O.3   101  TYR101     -0.2866
     79  N        -20.2080   25.4190   70.5350 N.3   132  LEU132     -0.1231
     80  CA       -20.2340   25.7390   69.1070 C.3   132  LEU132      0.1693
     81  C        -19.3580   24.7570   68.3210 C.2   132  LEU132      0.2592
     82  O        -19.7670   24.2590   67.2750 O.2   132  LEU132     -0.2718
     83  CB       -19.6900   27.1730   68.9090 C.3   132  LEU132      0.0284
     84  CG       -19.7380   27.7940   67.5130 C.3   132  LEU132      0.0019
     85  CD1      -21.1980   28.0120   67.1390 C.3   132  LEU132      0.0001
     86  CD2      -19.0150   29.1580   67.4930 C.3   132  LEU132      0.0001
     87  N        -18.1630   24.4550   68.8240 N.am  133  HIS133     -0.1976
     88  CA       -17.2950   23.5330   68.1090 C.3   133  HIS133      0.1656
     89  C        -17.7750   22.0770   68.1690 C.2   133  HIS133      0.2291
     90  O        -17.5140   21.2940   67.2420 O.2   133  HIS133     -0.2864
     91  CB       -15.8470   23.6190   68.6280 C.3   133  HIS133      0.0771
     92  CG       -15.1550   24.8870   68.2090 C.ar  133  HIS133      0.0820
     93  ND1      -14.3140   24.9580   67.1240 N.ar  133  HIS133     -0.2267
     94  CD2      -15.2290   26.1520   68.7080 C.ar  133  HIS133      0.1154
     95  CE1      -13.8830   26.2070   66.9740 C.ar  133  HIS133      0.1986
     96  NE2      -14.4240   26.9430   67.9220 N.ar  133  HIS133     -0.2212
     97  N        -20.5040   21.9990   65.6030 N.3   136  GLN136     -0.1245
     98  CA       -19.9700   22.1210   64.2710 C.3   136  GLN136      0.1566
     99  C        -19.2680   20.7970   63.9280 C.2   136  GLN136      0.2260
    100  O        -19.2900   20.3710   62.7810 O.2   136  GLN136     -0.2867
    101  CB       -18.9630   23.2530   64.2130 C.3   136  GLN136      0.0367
    102  CG       -18.3650   23.4670   62.8380 C.3   136  GLN136      0.0905
    103  CD       -19.2700   24.2720   61.9340 C.2   136  GLN136      0.2608
    104  OE1      -20.5150   24.3520   62.1270 O.2   136  GLN136     -0.2717
    105  NE2      -18.6650   24.8680   60.9370 N.am  136  GLN136     -0.0878
    106  N        -21.8950   18.2060   62.9170 N.3   139  ASP139     -0.1239
    107  CA       -22.4890   18.5860   61.6530 C.3   139  ASP139      0.1674
    108  C        -21.5510   18.1570   60.5090 C.2   139  ASP139      0.2266
    109  O        -21.9740   17.5420   59.5010 O.2   139  ASP139     -0.2867
    110  CB       -22.7290   20.1040   61.6410 C.3   139  ASP139      0.1410
    111  CG       -23.7760   20.5200   60.6380 C.2   139  ASP139      0.3668
    112  OD1      -24.7540   19.7510   60.4090 O.co2 139  ASP139     -0.2456
    113  OD2      -23.6390   21.6400   60.1000 O.co2 139  ASP139     -0.2456
    114  N        -24.4440   23.7250   68.2680 N.3   163  LYS163     -0.1245
    115  CA       -24.0130   24.5730   67.1600 C.3   163  LYS163      0.1561
    116  C        -24.6690   25.9470   67.1370 C.2   163  LYS163      0.2260
    117  O        -24.0550   26.9510   67.4530 O.2   163  LYS163     -0.2867
    118  CB       -24.2690   23.8920   65.8110 C.3   163  LYS163      0.0271
    119  CG       -23.5630   24.6260   64.6250 C.3   163  LYS163      0.0035
    120  CD       -23.8080   23.9450   63.3000 C.3   163  LYS163      0.0206
    121  CE       -25.1340   24.3460   62.7440 C.3   163  LYS163      0.1093
    122  NZ       -25.0790   25.8040   62.3110 N.3   163  LYS163     -0.1314
    123  N        -34.5290   29.4360   64.1790 N.3   195  TYR195     -0.1227
    124  CA       -33.6770   30.0650   63.2110 C.3   195  TYR195      0.1736
    125  C        -32.9640   29.0480   62.3010 C.2   195  TYR195      0.2595
    126  O        -32.9300   29.2120   61.0770 O.2   195  TYR195     -0.2718
    127  CB       -32.6510   30.9060   63.9370 C.3   195  TYR195      0.0548
    128  CG       -31.8540   31.6870   62.9920 C.ar  195  TYR195     -0.0200
    129  CD1      -32.3260   32.9110   62.5150 C.ar  195  TYR195     -0.0009
    130  CD2      -30.6530   31.1960   62.5090 C.ar  195  TYR195     -0.0009
    131  CE1      -31.6130   33.6290   61.5690 C.ar  195  TYR195      0.0417
    132  CE2      -29.9290   31.9080   61.5580 C.ar  195  TYR195      0.0417
    133  CZ       -30.4270   33.1230   61.1030 C.ar  195  TYR195      0.1957
    134  OH       -29.7250   33.8530   60.1850 O.3   195  TYR195     -0.2866
    135  N        -32.3900   28.0320   62.9030 N.am  196  GLN196     -0.1979
    136  CA       -31.6620   27.0320   62.1390 C.3   196  GLN196      0.1601
    137  C        -32.5540   26.1980   61.2330 C.2   196  GLN196      0.2287
    138  O        -32.1900   25.9090   60.1000 O.2   196  GLN196     -0.2864
    139  CB       -30.9040   26.0690   63.0560 C.3   196  GLN196      0.0394
    140  CG       -30.0320   25.1110   62.2580 C.3   196  GLN196      0.0908
    141  CD       -28.9620   25.8500   61.4720 C.2   196  GLN196      0.2608
    142  OE1      -28.1300   26.5410   62.0650 O.2   196  GLN196     -0.2717
    143  NE2      -28.9660   25.7040   60.1410 N.am  196  GLN196     -0.0878
    144  N        -33.7020   28.2480   58.4250 N.3   199  ASP199     -0.1239
    145  CA       -32.5950   28.4240   57.4800 C.3   199  ASP199      0.1674
    146  C        -32.5300   27.1950   56.5510 C.2   199  ASP199      0.2266
    147  O        -32.4820   27.3250   55.3240 O.2   199  ASP199     -0.2867
    148  CB       -31.2700   28.5200   58.2410 C.3   199  ASP199      0.1410
    149  CG       -30.6290   29.8960   58.1900 C.2   199  ASP199      0.3668
    150  OD1      -29.5540   30.0500   58.8230 O.co2 199  ASP199     -0.2456
    151  OD2      -31.1510   30.8260   57.5330 O.co2 199  ASP199     -0.2456
    152  N        -27.0500   24.0450   50.2370 N.3   214  ASP214     -0.1239
    153  CA       -26.9420   23.0090   51.2800 C.3   214  ASP214      0.1674
    154  C        -26.8770   21.6270   50.6120 C.2   214  ASP214      0.2266
    155  O        -26.2640   20.6950   51.1680 O.2   214  ASP214     -0.2867
    156  CB       -28.1230   23.0120   52.3100 C.3   214  ASP214      0.1410
    157  CG       -28.0190   24.1740   53.3480 C.2   214  ASP214      0.3668
    158  OD1      -26.9460   24.8100   53.4030 O.co2 214  ASP214     -0.2456
    159  OD2      -28.9910   24.4440   54.0830 O.co2 214  ASP214     -0.2456
    160  N        -25.0000   18.6210   53.3910 N.3   219  LYS219     -0.1245
    161  CA       -25.3980   18.8110   54.7900 C.3   219  LYS219      0.1561
    162  C        -26.5990   17.9780   55.2430 C.2   219  LYS219      0.2260
    163  O        -27.5540   17.7860   54.4940 O.2   219  LYS219     -0.2867
    164  CB       -25.7100   20.3370   54.9850 C.3   219  LYS219      0.0271
    165  CG       -26.3600   20.7440   56.2350 C.3   219  LYS219      0.0035
    166  CD       -26.9030   22.1730   56.1200 C.3   219  LYS219      0.0206
    167  CE       -25.9700   23.2400   56.6900 C.3   219  LYS219      0.1093
    168  NZ       -25.1560   24.0080   55.6520 N.3   219  LYS219     -0.1314
@<TRIPOS>BOND
     1    56    57    1
     2   152   153    1
     3   154   155    2
     4   154   153    1
     5    59    58    2
     6   153   156    1
     7    51    50    2
     8    58    57    1
     9    57    60    1
    10    50    49    1
    11   156   157    1
    12    60    61    1
    13    34    33    2
    14   157   158   ar
    15   157   159   ar
    16   160   161    1
    17    49    52    1
    18    49    48    1
    19    61    62    1
    20    35    36    1
    21    35    32    1
    22    33    32    1
    23    52    53    1
    24    36    37   ar
    25    36    38   ar
    26   163   162    2
    27    48    41   am
    28    32    31    1
    29    62    63    1
    30   161   164    1
    31   161   162    1
    32    42    41    2
    33   164   165    1
    34    41    40    1
    35    63    64    2
    36   147   146    2
    37    53    55   ar
    38    53    54   ar
    39   168   167    1
    40    39    40    1
    41    64    66    1
    42    64    65    1
    43    40    43    1
    44   166   165    1
    45   166   167    1
    46    31    25   am
    47    26    25    2
    48   146   145    1
    49    25    24    1
    50    30    28   ar
    51    10     9    2
    52   145   148    1
    53   145   144    1
    54    43    44    1
    55   151   149   ar
    56    18    17    2
    57   149   148    1
    58   149   150   ar
    59    28    27    1
    60    28    29   ar
    61     9     8    1
    62    24    27    1
    63    24    23    1
    64    17    23   am
    65    17    16    1
    66    44    45    1
    67    11     8    1
    68    11    12    1
    69    15    16    1
    70    13    12    1
    71    16    19    1
    72     8     7    1
    73   109   108    2
    74    12    14    1
    75    45    47   ar
    76    45    46   ar
    77   138   137    2
    78   113   111   ar
    79   143   141   am
    80   134   133    1
    81   112   111   ar
    82   108   107    1
    83    22    20    1
    84    19    21    1
    85    19    20    1
    86     7     3   am
    87   111   110    1
    88     4     3    2
    89   105   103   am
    90   126   125    2
    91   133   132   ar
    92   133   131   ar
    93   137   136    1
    94     3     2    1
    95   141   142    2
    96   141   140    1
    97   132   130   ar
    98   131   129   ar
    99   110   107    1
   100   107   106    1
   101   103   104    2
   102   103   102    1
   103   136   135    1
   104   136   139    1
   105   140   139    1
   106   125   135   am
   107   125   124    1
   108   122   121    1
   109   130   128   ar
   110   129   128   ar
   111     2     1    1
   112     2     5    1
   113   121   120    1
   114   100    99    2
   115   102   101    1
   116   128   127    1
   117   124   127    1
   118   124   123    1
   119   120   119    1
   120     6     5    1
   121    99    98    1
   122   101    98    1
   123    98    97    1
   124    78    77    1
   125   119   118    1
   126    77    76   ar
   127    77    75   ar
   128    76    74   ar
   129   118   115    1
   130    75    73   ar
   131    74    72   ar
   132    73    72   ar
   133    95    93   ar
   134    95    96   ar
   135    67    68    1
   136    93    92   ar
   137   116   115    1
   138   116   117    2
   139    85    84    1
   140   115   114    1
   141    72    71    1
   142    90    89    2
   143    82    81    2
   144    86    84    1
   145    84    83    1
   146    96    94   ar
   147    88    89    1
   148    88    91    1
   149    88    87    1
   150    92    91    1
   151    92    94   ar
   152    71    68    1
   153    68    69    1
   154    81    87   am
   155    81    80    1
   156    83    80    1
   157    80    79    1
   158    69    70    2
