@<TRIPOS>MOLECULE
tmp/2z4yA01.pdb
 116 108 0 0 0
SMALL
GASTEIGER

@<TRIPOS>ATOM
      1  N         41.9230   44.8720    5.5920 N.3    37  GLY37      -0.1225
      2  CA        40.6020   45.4700    5.5720 C.3    37  GLY37       0.1811
      3  C         40.6710   46.8740    4.9880 C.2    37  GLY37       0.2280
      4  O         41.6450   47.1530    4.2580 O.2    37  GLY37      -0.2866
      5  N         41.1620   52.0730    7.3560 N.3    38  ARG38      -0.1245
      6  CA        40.6060   52.7710    8.5610 C.3    38  ARG38       0.1563
      7  C         41.6850   53.6230    9.2310 C.2    38  ARG38       0.2260
      8  O         41.4680   54.8070    9.4870 O.2    38  ARG38      -0.2867
      9  CB        40.0540   51.7540    9.5770 C.3    38  ARG38       0.0307
     10  CG        38.8690   50.9570    9.0710 C.3    38  ARG38       0.0489
     11  CD        38.3580   49.9380   10.0850 C.3    38  ARG38       0.2205
     12  NE        39.1810   48.7290   10.1690 N.pl3  38  ARG38      -0.0865
     13  CZ        39.4490   47.9040    9.1530 C.cat  38  ARG38       0.5346
     14  NH1       38.9660   48.1380    7.9330 N.pl3  38  ARG38       0.1354
     15  NH2       40.2070   46.8330    9.3590 N.pl3  38  ARG38       0.1354
     16  N         41.5350   57.1480    7.9330 N.3    41  LEU41      -0.1245
     17  CA        40.5310   58.0280    8.5620 C.3    41  LEU41       0.1561
     18  C         40.9350   58.5590    9.9410 C.2    41  LEU41       0.2260
     19  O         40.7880   59.7400   10.2360 O.2    41  LEU41      -0.2867
     20  CB        39.1920   57.2850    8.6980 C.3    41  LEU41       0.0270
     21  CG        38.1500   57.9000    9.6530 C.3    41  LEU41       0.0019
     22  CD1       37.7570   59.2900    9.1760 C.3    41  LEU41       0.0001
     23  CD2       36.9280   57.0020    9.7490 C.3    41  LEU41       0.0001
     24  N         38.9470   50.3180   17.7430 N.3    63  VAL63      -0.1245
     25  CA        38.0620   50.4150   16.5980 C.3    63  VAL63       0.1561
     26  C         38.2570   49.2180   15.6650 C.2    63  VAL63       0.2260
     27  O         37.2850   48.7250   15.0690 O.2    63  VAL63      -0.2867
     28  CB        38.2870   51.7380   15.8270 C.3    63  VAL63       0.0252
     29  CG1       37.4480   51.7350   14.5520 C.3    63  VAL63       0.0019
     30  CG2       37.8610   52.9430   16.6970 C.3    63  VAL63       0.0019
     31  N         35.3320   46.6200   14.8420 N.3    67  HIS67      -0.1241
     32  CA        34.9150   46.5550   13.4470 C.3    67  HIS67       0.1621
     33  C         35.0350   45.1440   12.9240 C.2    67  HIS67       0.2264
     34  O         34.0970   44.6070   12.3630 O.2    67  HIS67      -0.2867
     35  CB        35.7530   47.5140   12.5680 C.3    67  HIS67       0.0745
     36  CG        35.5310   47.3600   11.0780 C.ar   67  HIS67       0.0817
     37  ND1       34.3060   47.5560   10.4720 N.ar   67  HIS67      -0.2268
     38  CD2       36.3950   47.0550   10.0740 C.ar   67  HIS67       0.1154
     39  CE1       34.4190   47.3710    9.1660 C.ar   67  HIS67       0.1986
     40  NE2       35.6800   47.0670    8.9040 N.ar   67  HIS67      -0.2212
     41  N         31.9900   42.4810   11.8130 N.3    71  LEU71      -0.1245
     42  CA        31.8690   41.8350   10.5210 C.3    71  LEU71       0.1561
     43  C         31.6870   40.3440   10.6830 C.2    71  LEU71       0.2260
     44  O         30.9770   39.7480    9.8740 O.2    71  LEU71      -0.2867
     45  CB        33.1040   42.0940    9.6060 C.3    71  LEU71       0.0270
     46  CG        33.4270   43.5730    9.3180 C.3    71  LEU71       0.0019
     47  CD1       34.6360   43.6280    8.3390 C.3    71  LEU71       0.0001
     48  CD2       32.1550   44.3230    8.7270 C.3    71  LEU71       0.0001
     49  N         34.0360   37.2930    2.6170 N.3    83  ARG83      -0.1231
     50  CA        34.4040   38.5480    3.2690 C.3    83  ARG83       0.1694
     51  C         35.8880   38.7700    2.8970 C.2    83  ARG83       0.2591
     52  O         36.7110   37.8580    3.0370 O.2    83  ARG83      -0.2718
     53  CB        34.2170   38.4460    4.8170 C.3    83  ARG83       0.0321
     54  CG        34.8320   39.6100    5.6470 C.3    83  ARG83       0.0489
     55  CD        34.1650   41.0280    5.3980 C.3    83  ARG83       0.2205
     56  NE        32.7450   41.0600    5.8040 N.pl3  83  ARG83      -0.0865
     57  CZ        31.9310   42.1230    5.6840 C.cat  83  ARG83       0.5346
     58  NH1       32.3790   43.2760    5.1660 N.pl3  83  ARG83       0.1354
     59  NH2       30.6590   42.0400    6.0720 N.pl3  83  ARG83       0.1354
     60  N         36.2150   39.9650    2.4240 N.am   84  ARG84      -0.1980
     61  CA        37.5640   40.3300    1.9930 C.3    84  ARG84       0.1597
     62  C         38.1320   39.2700    1.0110 C.2    84  ARG84       0.2287
     63  O         39.3010   38.8900    1.0900 O.2    84  ARG84      -0.2864
     64  CB        38.4790   40.4910    3.2160 C.3    84  ARG84       0.0334
     65  CG        37.9720   41.6110    4.1770 C.3    84  ARG84       0.0492
     66  CD        38.7750   41.7010    5.4740 C.3    84  ARG84       0.2205
     67  NE        38.3720   42.8510    6.3100 N.pl3  84  ARG84      -0.0865
     68  CZ        38.9110   43.1290    7.4990 C.cat  84  ARG84       0.5346
     69  NH1       38.5060   44.1780    8.2030 N.pl3  84  ARG84       0.1354
     70  NH2       39.8660   42.3460    7.9850 N.pl3  84  ARG84       0.1354
     71  N         29.9220   53.3010   14.4890 N.3   172  LEU172     -0.1231
     72  CA        31.3940   53.1810   14.5040 C.3   172  LEU172      0.1693
     73  C         32.1050   54.4840   14.1600 C.2   172  LEU172      0.2592
     74  O         33.2010   54.7580   14.6950 O.2   172  LEU172     -0.2718
     75  CB        31.8950   52.1110   13.5200 C.3   172  LEU172      0.0284
     76  CG        32.3210   50.7440   14.1050 C.3   172  LEU172      0.0019
     77  CD1       33.8450   50.7050   14.2100 C.3   172  LEU172      0.0001
     78  CD2       31.6630   50.4970   15.4970 C.3   172  LEU172      0.0001
     79  N         31.5110   55.2720   13.2680 N.am  173  PHE173     -0.1976
     80  CA        32.1380   56.5350   12.8830 C.3   173  PHE173      0.1639
     81  C         32.1090   57.4650   14.1000 C.2   173  PHE173      0.2290
     82  O         33.1120   58.0390   14.4570 O.2   173  PHE173     -0.2864
     83  CB        31.4090   57.1540   11.6840 C.3   173  PHE173      0.0560
     84  CG        31.7930   56.5520   10.3420 C.ar  173  PHE173     -0.0200
     85  CD1       32.5220   57.2890    9.4310 C.ar  173  PHE173     -0.0042
     86  CD2       31.3400   55.3090    9.9630 C.ar  173  PHE173     -0.0042
     87  CE1       32.7680   56.7820    8.1460 C.ar  173  PHE173     -0.0003
     88  CE2       31.5870   54.8020    8.7100 C.ar  173  PHE173     -0.0003
     89  CZ        32.2840   55.5180    7.8030 C.ar  173  PHE173     -0.0000
     90  N         34.5400   56.3020   16.9530 N.3   176  THR176     -0.1218
     91  CA        35.9070   56.7130   16.6740 C.3   176  THR176      0.1862
     92  C         36.1040   58.2240   16.9160 C.2   176  THR176      0.2287
     93  O         37.0600   58.6440   17.5740 O.2   176  THR176     -0.2866
     94  CB        36.2600   56.4400   15.2200 C.3   176  THR176      0.1770
     95  OG1       35.9520   55.0820   14.9020 O.3   176  THR176     -0.2211
     96  CG2       37.7600   56.7540   14.9650 C.3   176  THR176      0.0375
     97  N         28.9340   57.1670    3.1190 N.3   198  TYR198     -0.1241
     98  CA        29.6010   55.8660    3.0340 C.3   198  TYR198      0.1605
     99  C         28.6050   54.6800    2.8360 C.2   198  TYR198      0.2264
    100  O         28.8270   53.7880    1.9860 O.2   198  TYR198     -0.2867
    101  CB        30.4120   55.6110    4.3090 C.3   198  TYR198      0.0534
    102  CG        30.9300   54.2130    4.4020 C.ar  198  TYR198     -0.0201
    103  CD1       32.1030   53.8500    3.7620 C.ar  198  TYR198     -0.0009
    104  CD2       30.1770   53.2170    5.0320 C.ar  198  TYR198     -0.0009
    105  CE1       32.5290   52.4990    3.7240 C.ar  198  TYR198      0.0417
    106  CE2       30.5780   51.8600    5.0040 C.ar  198  TYR198      0.0417
    107  CZ        31.7540   51.5130    4.3340 C.ar  198  TYR198      0.1957
    108  OH        32.0920   50.1710    4.1800 O.3   198  TYR198     -0.2866
    109  N         28.0150   52.4880   -0.5490 N.3   202  ASP202     -0.1239
    110  CA        28.2220   51.0630   -0.4080 C.3   202  ASP202      0.1674
    111  C         27.0070   50.3210   -1.0150 C.2   202  ASP202      0.2266
    112  O         27.1910   49.3680   -1.7690 O.2   202  ASP202     -0.2867
    113  CB        28.3490   50.6730    1.0880 C.3   202  ASP202      0.1410
    114  CG        28.5820   49.1550    1.3080 C.2   202  ASP202      0.3668
    115  OD1       27.8790   48.4790    2.1090 O.co2 202  ASP202     -0.2456
    116  OD2       29.4910   48.6010    0.6820 O.co2 202  ASP202     -0.2456
@<TRIPOS>BOND
     1   112   111    2
     2   111   110    1
     3   109   110    1
     4   110   113    1
     5   116   114   ar
     6    62    63    2
     7    62    61    1
     8   113   114    1
     9   114   115   ar
    10   100    99    2
    11    61    60    1
    12    61    64    1
    13    60    51   am
    14    49    50    1
    15    99    98    1
    16    51    52    2
    17    51    50    1
    18    98    97    1
    19    98   101    1
    20    64    65    1
    21    50    53    1
    22   105   103   ar
    23   105   107   ar
    24   103   102   ar
    25    65    66    1
    26   108   107    1
    27     4     3    2
    28   101   102    1
    29   107   106   ar
    30   102   104   ar
    31    53    54    1
    32     3     2    1
    33   106   104   ar
    34    58    57    1
    35    55    54    1
    36    55    56    1
    37    66    67    1
    38     2     1    1
    39    57    56    2
    40    57    59    1
    41    67    68    2
    42     5     6    1
    43    68    70    1
    44    68    69    1
    45    89    87   ar
    46    89    88   ar
    47    16    17    1
    48    14    13    1
    49    87    85   ar
    50    47    46    1
    51     6     7    1
    52     6     9    1
    53    17    20    1
    54    17    18    1
    55    20    21    1
    56    88    86   ar
    57    48    46    1
    58    40    39   ar
    59    40    38   ar
    60    10     9    1
    61    10    11    1
    62    13    15    1
    63    13    12    2
    64    39    37   ar
    65    22    21    1
    66     7     8    2
    67    46    45    1
    68    85    84   ar
    69    45    42    1
    70    21    23    1
    71    44    43    2
    72    18    19    2
    73    86    84   ar
    74    38    36   ar
    75    11    12    1
    76    84    83    1
    77    37    36   ar
    78    42    43    1
    79    42    41    1
    80    36    35    1
    81    83    80    1
    82    34    33    2
    83    35    32    1
    84    80    79    1
    85    80    81    1
    86    33    32    1
    87    79    73   am
    88    32    31    1
    89    75    76    1
    90    75    72    1
    91    81    82    2
    92    76    77    1
    93    76    78    1
    94    73    72    1
    95    73    74    2
    96    71    72    1
    97    29    28    1
    98    95    94    1
    99    96    94    1
   100    27    26    2
   101    94    91    1
   102    26    25    1
   103    28    25    1
   104    28    30    1
   105    25    24    1
   106    91    92    1
   107    91    90    1
   108    92    93    2
