@<TRIPOS>MOLECULE
tmp/2z4zA00.pdb
 224 211 0 0 0
SMALL
GASTEIGER

@<TRIPOS>ATOM
      1  N         42.3480   52.3930    7.7020 N.3    41  ARG41      -0.1245
      2  CA        41.6210   52.8040    8.8820 C.3    41  ARG41       0.1563
      3  C         42.6430   53.5560    9.7270 C.2    41  ARG41       0.2260
      4  O         42.2970   54.4940   10.4540 O.2    41  ARG41      -0.2867
      5  CB        41.0570   51.5890    9.6390 C.3    41  ARG41       0.0307
      6  CG        39.8180   50.9890    8.9840 C.3    41  ARG41       0.0489
      7  CD        39.2150   49.8300    9.7690 C.3    41  ARG41       0.2205
      8  NE        40.1470   48.7200    9.9210 N.pl3  41  ARG41      -0.0865
      9  CZ        40.5210   47.9010    8.9430 C.cat  41  ARG41       0.5346
     10  NH1       40.0430   48.0520    7.7150 N.pl3  41  ARG41       0.1354
     11  NH2       41.3840   46.9250    9.1970 N.pl3  41  ARG41       0.1354
     12  N         36.3990   46.4520   15.2270 N.3    70  HIS70      -0.1241
     13  CA        36.1100   46.4140   13.8200 C.3    70  HIS70       0.1621
     14  C         36.0630   44.9720   13.3530 C.2    70  HIS70       0.2264
     15  O         35.0690   44.5280   12.8260 O.2    70  HIS70      -0.2867
     16  CB        37.1830   47.1610   13.0160 C.3    70  HIS70       0.0745
     17  CG        36.9120   47.2050   11.5430 C.ar   70  HIS70       0.0817
     18  ND1       35.8540   47.9040   11.0030 N.ar   70  HIS70      -0.2268
     19  CD2       37.5880   46.6830   10.4910 C.ar   70  HIS70       0.1154
     20  CE1       35.8880   47.8190    9.6880 C.ar   70  HIS70       0.1986
     21  NE2       36.9330   47.0870    9.3480 N.ar   70  HIS70      -0.2212
     22  N         33.2020   42.8200   14.9180 N.3    73  SER73      -0.1202
     23  CA        31.8960   43.1940   14.3450 C.3    73  SER73       0.2020
     24  C         31.7020   42.5350   13.0050 C.2    73  SER73       0.2618
     25  O         30.5870   42.0880   12.6990 O.2    73  SER73      -0.2717
     26  CB        31.7750   44.7120   14.1290 C.3    73  SER73       0.2103
     27  OG        31.5560   45.3110   15.3770 O.3    73  SER73      -0.2182
     28  N         32.7660   42.5100   12.1990 N.am   74  LEU74      -0.1979
     29  CA        32.7170   41.9020   10.8820 C.3    74  LEU74       0.1596
     30  C         32.4740   40.4060   10.9610 C.2    74  LEU74       0.2287
     31  O         31.6740   39.8720   10.1880 O.2    74  LEU74      -0.2864
     32  CB        34.0200   42.1900   10.0810 C.3    74  LEU74       0.0297
     33  CG        34.2750   43.6600    9.7430 C.3    74  LEU74       0.0022
     34  CD1       35.4040   43.7470    8.6440 C.3    74  LEU74       0.0001
     35  CD2       32.9470   44.3400    9.2420 C.3    74  LEU74       0.0001
     36  N         30.8630   38.7450   13.2390 N.3    76  ILE76      -0.1231
     37  CA        29.4610   38.5840   13.6630 C.3    76  ILE76       0.1692
     38  C         28.5640   38.9120   12.4680 C.2    76  ILE76       0.2592
     39  O         27.6560   38.1730   12.1310 O.2    76  ILE76      -0.2718
     40  CB        29.1200   39.5640   14.8380 C.3    76  ILE76       0.0266
     41  CG1       29.8690   39.1550   16.1160 C.3    76  ILE76       0.0019
     42  CG2       27.5700   39.5650   15.0970 C.3    76  ILE76       0.0020
     43  CD1       29.4180   37.7910   16.6920 C.3    76  ILE76       0.0001
     44  N         28.8600   40.0410   11.8390 N.am   77  ASP77      -0.1974
     45  CA        28.1220   40.4980   10.6760 C.3    77  ASP77       0.1709
     46  C         28.0690   39.4530    9.5600 C.2    77  ASP77       0.2293
     47  O         27.0030   39.2130    8.9580 O.2    77  ASP77      -0.2864
     48  CB        28.7490   41.7910   10.1510 C.3    77  ASP77       0.1436
     49  CG        27.9980   42.3320    8.9750 C.2    77  ASP77       0.3671
     50  OD1       26.7870   42.7170    9.1410 O.co2  77  ASP77      -0.2456
     51  OD2       28.6080   42.3310    7.8780 O.co2  77  ASP77      -0.2456
     52  N         25.6470   36.7850   10.6760 N.3    80  GLU80      -0.1231
     53  CA        24.2640   37.3240   10.5980 C.3    80  GLU80       0.1699
     54  C         23.7850   37.4930    9.1630 C.2    80  GLU80       0.2592
     55  O         22.5870   37.4840    8.8910 O.2    80  GLU80      -0.2718
     56  CB        24.2170   38.6690   11.3480 C.3    80  GLU80       0.0402
     57  CG        24.4940   38.4730   12.8120 C.3    80  GLU80       0.1161
     58  CD        24.6980   39.7510   13.6170 C.2    80  GLU80       0.3649
     59  OE1       24.5170   39.6610   14.8570 O.co2  80  GLU80      -0.2457
     60  OE2       25.0430   40.8070   13.0330 O.co2  80  GLU80      -0.2457
     61  N         24.7450   37.6650    8.2490 N.am   81  ASP81      -0.1974
     62  CA        24.4350   37.8860    6.8330 C.3    81  ASP81       0.1709
     63  C         24.5840   36.6200    5.9700 C.2    81  ASP81       0.2293
     64  O         24.3100   36.6580    4.7640 O.2    81  ASP81      -0.2864
     65  CB        25.3600   38.9510    6.2120 C.3    81  ASP81       0.1436
     66  CG        25.1350   40.3850    6.7580 C.2    81  ASP81       0.3671
     67  OD1       24.1740   40.6820    7.5120 O.co2  81  ASP81      -0.2456
     68  OD2       25.9660   41.2370    6.4090 O.co2  81  ASP81      -0.2456
     69  N         34.7170   37.3820    2.3260 N.3    86  ARG86      -0.1245
     70  CA        34.9830   38.7020    2.8950 C.3    86  ARG86       0.1563
     71  C         36.3590   39.0860    2.3140 C.2    86  ARG86       0.2260
     72  O         37.3570   38.4160    2.5670 O.2    86  ARG86      -0.2867
     73  CB        34.9320   38.5720    4.4370 C.3    86  ARG86       0.0307
     74  CG        35.7430   39.5150    5.3200 C.3    86  ARG86       0.0489
     75  CD        35.1240   40.8610    5.7110 C.3    86  ARG86       0.2205
     76  NE        33.6940   40.8330    6.0100 N.pl3  86  ARG86      -0.0865
     77  CZ        32.9470   41.9230    5.9230 C.cat  86  ARG86       0.5346
     78  NH1       33.5290   43.0650    5.5730 N.pl3  86  ARG86       0.1354
     79  NH2       31.6330   41.8880    6.1380 N.pl3  86  ARG86       0.1354
     80  N         35.2920   41.5540   21.9420 N.3   109  TYR109     -0.1241
     81  CA        34.6060   42.7850   22.3480 C.3   109  TYR109      0.1605
     82  C         35.1330   43.0680   23.7590 C.2   109  TYR109      0.2264
     83  O         35.4820   44.2030   24.0890 O.2   109  TYR109     -0.2867
     84  CB        33.0830   42.6070   22.4520 C.3   109  TYR109      0.0534
     85  CG        32.3490   42.5500   21.1190 C.ar  109  TYR109     -0.0201
     86  CD1       31.0530   42.0220   21.0390 C.ar  109  TYR109     -0.0009
     87  CD2       32.9160   43.0820   19.9470 C.ar  109  TYR109     -0.0009
     88  CE1       30.3420   42.0280   19.8370 C.ar  109  TYR109      0.0417
     89  CE2       32.1970   43.0970   18.7200 C.ar  109  TYR109      0.0417
     90  CZ        30.9200   42.5680   18.6800 C.ar  109  TYR109      0.1957
     91  OH        30.2190   42.5610   17.4960 O.3   109  TYR109     -0.2866
     92  N         25.5570   50.8190   17.9040 N.3   140  LEU140     -0.1231
     93  CA        25.9050   49.8930   16.8370 C.3   140  LEU140      0.1693
     94  C         24.9350   48.7010   16.8160 C.2   140  LEU140      0.2592
     95  O         24.4250   48.3180   15.7720 O.2   140  LEU140     -0.2718
     96  CB        27.3500   49.3720   17.0300 C.3   140  LEU140      0.0284
     97  CG        27.8530   48.2310   16.1190 C.3   140  LEU140      0.0019
     98  CD1       27.8900   48.6970   14.6630 C.3   140  LEU140      0.0001
     99  CD2       29.2830   47.8110   16.5540 C.3   140  LEU140      0.0001
    100  N         24.7000   48.1060   17.9740 N.am  141  HIS141     -0.1976
    101  CA        23.7920   46.9720   18.0320 C.3   141  HIS141      0.1656
    102  C         22.3510   47.3720   17.7170 C.2   141  HIS141      0.2291
    103  O         21.6300   46.6050   17.1230 O.2   141  HIS141     -0.2864
    104  CB        23.9120   46.2830   19.4030 C.3   141  HIS141      0.0771
    105  CG        25.1930   45.5180   19.5490 C.ar  141  HIS141      0.0820
    106  ND1       25.2860   44.1570   19.3290 N.ar  141  HIS141     -0.2267
    107  CD2       26.4590   45.9470   19.7740 C.ar  141  HIS141      0.1154
    108  CE1       26.5490   43.7800   19.4140 C.ar  141  HIS141      0.1986
    109  NE2       27.2790   44.8470   19.6840 N.ar  141  HIS141     -0.2212
    110  N         22.2480   47.6710   13.8730 N.3   144  GLN144     -0.1245
    111  CA        22.3430   46.3220   13.3090 C.3   144  GLN144      0.1566
    112  C         21.0230   45.5710   13.5740 C.2   144  GLN144      0.2260
    113  O         20.5310   44.8550   12.6940 O.2   144  GLN144     -0.2867
    114  CB        23.5170   45.5580   13.9360 C.3   144  GLN144      0.0367
    115  CG        23.7200   44.1530   13.3850 C.3   144  GLN144      0.0905
    116  CD        24.2360   44.1670   11.9560 C.2   144  GLN144      0.2608
    117  OE1       23.9960   45.1250   11.2180 O.2   144  GLN144     -0.2717
    118  NE2       24.9250   43.0900   11.5450 N.am  144  GLN144     -0.0878
    119  N         18.5110   46.7810   10.8700 N.3   147  ASP147     -0.1239
    120  CA        18.8820   46.3150    9.5340 C.3   147  ASP147      0.1674
    121  C         18.5380   44.8140    9.3710 C.2   147  ASP147      0.2266
    122  O         17.9330   44.3730    8.3810 O.2   147  ASP147     -0.2867
    123  CB        20.3720   46.5970    9.3100 C.3   147  ASP147      0.1410
    124  CG        20.7120   46.8950    7.8460 C.2   147  ASP147      0.3668
    125  OD1       19.8050   47.3100    7.0690 O.co2 147  ASP147     -0.2456
    126  OD2       21.9060   46.7230    7.5000 O.co2 147  ASP147     -0.2456
    127  N         24.0210   52.3270   13.4170 N.3   171  LYS171     -0.1231
    128  CA        24.9460   51.2550   13.0590 C.3   171  LYS171      0.1693
    129  C         26.3190   51.7310   12.5810 C.2   171  LYS171      0.2592
    130  O         27.2700   51.6540   13.3450 O.2   171  LYS171     -0.2718
    131  CB        24.2800   50.3260   12.0120 C.3   171  LYS171      0.0285
    132  CG        25.1080   49.1260   11.4950 C.3   171  LYS171      0.0035
    133  CD        24.3230   48.2990   10.4290 C.3   171  LYS171      0.0206
    134  CE        25.2690   47.3750    9.6190 C.3   171  LYS171      0.1093
    135  NZ        24.6180   46.1820    8.8610 N.3   171  LYS171     -0.1314
    136  N         26.4440   52.2210   11.3420 N.am  172  THR172     -0.1953
    137  CA        27.7630   52.6530   10.8410 C.3   172  THR172      0.1897
    138  C         28.2720   53.8790   11.6100 C.2   172  THR172      0.2313
    139  O         29.4710   53.9830   11.9550 O.2   172  THR172     -0.2863
    140  CB        27.6980   52.9580    9.3380 C.3   172  THR172      0.1794
    141  OG1       26.7700   52.0590    8.7310 O.3   172  THR172     -0.2208
    142  CG2       29.0760   52.7150    8.6850 C.3   172  THR172      0.0378
    143  N         30.3320   52.9710   14.8920 N.3   175  LEU175     -0.1231
    144  CA        31.7630   52.7120   14.7820 C.3   175  LEU175      0.1693
    145  C         32.6250   53.9750   14.4520 C.2   175  LEU175      0.2592
    146  O         33.7370   54.1580   15.0160 O.2   175  LEU175     -0.2718
    147  CB        31.9940   51.6060   13.7490 C.3   175  LEU175      0.0284
    148  CG        31.5650   50.2000   14.2440 C.3   175  LEU175      0.0019
    149  CD1       31.1990   49.3250   13.0370 C.3   175  LEU175      0.0001
    150  CD2       32.6900   49.5560   15.0620 C.3   175  LEU175      0.0001
    151  N         32.1230   54.8350   13.5650 N.am  176  PHE176     -0.1976
    152  CA        32.8360   56.0720   13.2230 C.3   176  PHE176      0.1639
    153  C         32.8820   57.0120   14.4160 C.2   176  PHE176      0.2290
    154  O         33.9260   57.6110   14.7140 O.2   176  PHE176     -0.2864
    155  CB        32.1490   56.7780   12.0600 C.3   176  PHE176      0.0560
    156  CG        32.5580   56.2670   10.7290 C.ar  176  PHE176     -0.0200
    157  CD1       33.5590   56.9110   10.0060 C.ar  176  PHE176     -0.0042
    158  CD2       31.9600   55.1230   10.1940 C.ar  176  PHE176     -0.0042
    159  CE1       33.9500   56.4260    8.7720 C.ar  176  PHE176     -0.0003
    160  CE2       32.3490   54.6340    8.9730 C.ar  176  PHE176     -0.0003
    161  CZ        33.3440   55.2800    8.2480 C.ar  176  PHE176     -0.0000
    162  N         29.9130   56.6200    3.6200 N.3   205  TYR205     -0.1227
    163  CA        30.4920   55.3110    3.5520 C.3   205  TYR205      0.1736
    164  C         29.4130   54.2160    3.3310 C.2   205  TYR205      0.2595
    165  O         29.5610   53.3520    2.4640 O.2   205  TYR205     -0.2718
    166  CB        31.2370   55.0060    4.8310 C.3   205  TYR205      0.0548
    167  CG        31.8470   53.6530    4.7810 C.ar  205  TYR205     -0.0200
    168  CD1       33.1580   53.4770    4.3320 C.ar  205  TYR205     -0.0009
    169  CD2       31.1000   52.5110    5.1140 C.ar  205  TYR205     -0.0009
    170  CE1       33.7150   52.2010    4.2090 C.ar  205  TYR205      0.0417
    171  CE2       31.6630   51.2300    4.9980 C.ar  205  TYR205      0.0417
    172  CZ        32.9720   51.0970    4.5420 C.ar  205  TYR205      0.1957
    173  OH        33.5350   49.8380    4.4350 O.3   205  TYR205     -0.2866
    174  N         28.3550   54.2490    4.1270 N.am  206  GLN206     -0.1979
    175  CA        27.3460   53.2010    4.0060 C.3   206  GLN206      0.1601
    176  C         26.5570   53.1840    2.7040 C.2   206  GLN206      0.2287
    177  O         26.3900   52.1470    2.0990 O.2   206  GLN206     -0.2864
    178  CB        26.3520   53.2390    5.1690 C.3   206  GLN206      0.0394
    179  CG        25.5050   51.9550    5.2020 C.3   206  GLN206      0.0908
    180  CD        26.3780   50.7000    5.2710 C.2   206  GLN206      0.2608
    181  OE1       27.0030   50.4380    6.2830 O.2   206  GLN206     -0.2717
    182  NE2       26.4270   49.9340    4.1810 N.am  206  GLN206     -0.0878
    183  N         28.7780   52.0220   -0.0210 N.3   209  ASP209     -0.1239
    184  CA        28.9630   50.6010    0.0980 C.3   209  ASP209      0.1674
    185  C         27.7410   49.9330   -0.5770 C.2   209  ASP209      0.2266
    186  O         27.8880   49.0290   -1.3910 O.2   209  ASP209     -0.2867
    187  CB        29.0260   50.1980    1.5960 C.3   209  ASP209      0.1410
    188  CG        29.2380   48.6720    1.8260 C.2   209  ASP209      0.3668
    189  OD1       28.4950   48.0750    2.6600 O.co2 209  ASP209     -0.2456
    190  OD2       30.1460   48.0660    1.2250 O.co2 209  ASP209     -0.2456
    191  N         24.6380   41.6420   -1.7080 N.3   222  ASP222     -0.1239
    192  CA        23.5990   42.3090   -0.9380 C.3   222  ASP222      0.1674
    193  C         22.2240   41.8690   -1.4110 C.2   222  ASP222      0.2266
    194  O         21.2890   41.8500   -0.6180 O.2   222  ASP222     -0.2867
    195  CB        23.6780   43.8540   -1.0450 C.3   222  ASP222      0.1410
    196  CG        24.7350   44.4290   -0.1510 C.2   222  ASP222      0.3668
    197  OD1       25.3280   43.5960    0.5460 O.co2 222  ASP222     -0.2456
    198  OD2       24.9620   45.6840   -0.1390 O.co2 222  ASP222     -0.2456
    199  N         21.5580   38.5390    0.0590 N.3   225  GLU225     -0.1245
    200  CA        21.2880   38.6400    1.4710 C.3   225  GLU225      0.1567
    201  C         19.8910   39.1920    1.7340 C.2   225  GLU225      0.2260
    202  O         19.3300   38.9560    2.8000 O.2   225  GLU225     -0.2867
    203  CB        22.3700   39.4990    2.1340 C.3   225  GLU225      0.0388
    204  CG        22.1170   39.8100    3.5840 C.3   225  GLU225      0.1160
    205  CD        22.9450   41.0190    4.1050 C.2   225  GLU225      0.3649
    206  OE1       22.4370   41.7160    5.0250 O.co2 225  GLU225     -0.2457
    207  OE2       24.0870   41.2540    3.6020 O.co2 225  GLU225     -0.2457
    208  N         19.1100   42.3680    1.7890 N.3   227  LYS227     -0.1245
    209  CA        19.3070   43.6370    2.4810 C.3   227  LYS227      0.1561
    210  C         18.4380   44.8360    2.0410 C.2   227  LYS227      0.2260
    211  O         18.2610   45.0950    0.8450 O.2   227  LYS227     -0.2867
    212  CB        20.7810   44.0320    2.3180 C.3   227  LYS227      0.0271
    213  CG        21.3050   44.9770    3.3730 C.3   227  LYS227      0.0035
    214  CD        22.6550   45.5520    2.9510 C.3   227  LYS227      0.0206
    215  CE        23.3740   46.1430    4.1640 C.3   227  LYS227      0.1093
    216  NZ        24.4800   47.0270    3.7500 N.3   227  LYS227     -0.1314
    217  N         38.2850   51.4510    3.4570 N.3   315  LEU315     -0.1245
    218  CA        38.5850   51.4910    4.8790 C.3   315  LEU315      0.1561
    219  C         38.3130   50.1110    5.4800 C.2   315  LEU315      0.2260
    220  O         37.8560   49.2160    4.7370 O.2   315  LEU315     -0.2867
    221  CB        37.7090   52.5360    5.5770 C.3   315  LEU315      0.0270
    222  CG        37.9150   54.0060    5.1960 C.3   315  LEU315      0.0019
    223  CD1       36.9890   54.8900    6.0220 C.3   315  LEU315      0.0001
    224  CD2       39.3710   54.3870    5.4310 C.3   315  LEU315      0.0001
@<TRIPOS>BOND
     1   191   192    1
     2   193   192    1
     3   193   194    2
     4   186   185    2
     5   195   192    1
     6   195   196    1
     7   185   184    1
     8   196   198   ar
     9   196   197   ar
    10   183   184    1
    11   199   200    1
    12   184   187    1
    13   211   210    2
    14   190   188   ar
    15   200   201    1
    16   200   203    1
    17   187   188    1
    18   201   202    2
    19   208   209    1
    20   188   189   ar
    21   210   209    1
    22   177   176    2
    23   203   204    1
    24    71    72    2
    25    71    70    1
    26   212   209    1
    27   212   213    1
    28    69    70    1
    29   165   164    2
    30   176   175    1
    31    70    73    1
    32   214   213    1
    33   214   215    1
    34   164   163    1
    35   164   174   am
    36   217   218    1
    37   163   162    1
    38   163   166    1
    39   204   205    1
    40   207   205   ar
    41   216   215    1
    42   175   174    1
    43   175   178    1
    44   205   206   ar
    45   182   180   am
    46   170   168   ar
    47   170   172   ar
    48   168   167   ar
    49   173   172    1
    50    73    74    1
    51   172   171   ar
    52   220   219    2
    53    64    63    2
    54   167   166    1
    55   167   169   ar
    56   218   219    1
    57   218   221    1
    58   171   169   ar
    59   178   179    1
    60   222   224    1
    61   222   221    1
    62   222   223    1
    63   179   180    1
    64   180   181    2
    65    74    75    1
    66    78    77    1
    67    75    76    1
    68    77    76    2
    69    77    79    1
    70    63    62    1
    71    65    66    1
    72    65    62    1
    73    68    66   ar
    74    66    67   ar
    75    62    61    1
    76   125   124   ar
    77   126   124   ar
    78     1     2    1
    79    10     9    1
    80   124   123    1
    81    51    49   ar
    82   161   159   ar
    83   161   160   ar
    84    61    54   am
    85   122   121    2
    86    34    33    1
    87   142   140    1
    88   141   140    1
    89   159   157   ar
    90   135   134    1
    91     2     5    1
    92     2     3    1
    93    55    54    2
    94     9    11    1
    95     9     8    2
    96    47    46    2
    97   160   158   ar
    98    49    50   ar
    99    49    48    1
   100     6     5    1
   101     6     7    1
   102    54    53    1
   103    35    33    1
   104   123   120    1
   105   140   137    1
   106    21    20   ar
   107    21    19   ar
   108   121   120    1
   109   120   119    1
   110    46    45    1
   111   134   133    1
   112    20    18   ar
   113     3     4    2
   114    33    32    1
   115     7     8    1
   116   157   156   ar
   117    32    29    1
   118    48    45    1
   119    31    30    2
   120   158   156   ar
   121   133   132    1
   122    19    17   ar
   123    53    52    1
   124    53    56    1
   125    45    44    1
   126   156   155    1
   127   137   136    1
   128   137   138    1
   129    29    30    1
   130    29    28    1
   131    18    17   ar
   132   117   116    2
   133   136   129   am
   134    56    57    1
   135   132   131    1
   136    17    16    1
   137   118   116   am
   138   138   139    2
   139    44    38   am
   140   116   115    1
   141   131   128    1
   142   155   152    1
   143    39    38    2
   144    28    24   am
   145    38    37    1
   146   129   128    1
   147   129   130    2
   148   113   112    2
   149    25    24    2
   150    57    58    1
   151    15    14    2
   152    24    23    1
   153    16    13    1
   154    60    58   ar
   155   149   148    1
   156   128   127    1
   157   152   151    1
   158   152   153    1
   159    36    37    1
   160   111   112    1
   161   111   110    1
   162   111   114    1
   163    14    13    1
   164   115   114    1
   165   151   145   am
   166    58    59   ar
   167    37    40    1
   168   147   148    1
   169   147   144    1
   170    13    12    1
   171    26    23    1
   172    26    27    1
   173   148   150    1
   174    23    22    1
   175   153   154    2
   176   145   144    1
   177   145   146    2
   178    98    97    1
   179   144   143    1
   180    40    42    1
   181    40    41    1
   182    95    94    2
   183    41    43    1
   184    97    99    1
   185    97    96    1
   186    94    93    1
   187    94   100   am
   188    93    96    1
   189    93    92    1
   190   103   102    2
   191    91    90    1
   192   102   101    1
   193   100   101    1
   194   101   104    1
   195    90    89   ar
   196    90    88   ar
   197    89    87   ar
   198   106   108   ar
   199   106   105   ar
   200   104   105    1
   201   108   109   ar
   202   105   107   ar
   203   109   107   ar
   204    88    86   ar
   205    87    85   ar
   206    86    85   ar
   207    85    84    1
   208    80    81    1
   209    81    84    1
   210    81    82    1
   211    82    83    2
