@<TRIPOS>MOLECULE
tmp/2z50A00.pdb
 172 159 0 0 0
SMALL
GASTEIGER

@<TRIPOS>ATOM
      1  N         36.1720   47.5980   15.3010 N.3    61  HIS61      -0.1241
      2  CA        35.7580   47.4820   13.9070 C.3    61  HIS61       0.1621
      3  C         35.8740   46.0290   13.4090 C.2    61  HIS61       0.2264
      4  O         34.9010   45.4830   12.8400 O.2    61  HIS61      -0.2867
      5  CB        36.5770   48.4350   13.0060 C.3    61  HIS61       0.0745
      6  CG        36.3140   48.2970   11.5220 C.ar   61  HIS61       0.0817
      7  ND1       35.0790   48.5200   10.9490 N.ar   61  HIS61      -0.2268
      8  CD2       37.1600   48.0610   10.4900 C.ar   61  HIS61       0.1154
      9  CE1       35.1700   48.4350    9.6350 C.ar   61  HIS61       0.1986
     10  NE2       36.4260   48.1550    9.3290 N.ar   61  HIS61      -0.2212
     11  N         33.2400   43.7190   14.9490 N.3    64  SER64      -0.1202
     12  CA        31.9340   44.0890   14.3720 C.3    64  SER64       0.2020
     13  C         31.7020   43.4060   13.0370 C.2    64  SER64       0.2618
     14  O         30.5680   42.9850   12.7130 O.2    64  SER64      -0.2717
     15  CB        31.8770   45.6120   14.0910 C.3    64  SER64       0.2103
     16  OG        31.3550   46.2200   15.2150 O.3    64  SER64      -0.2182
     17  N         32.7720   43.3720   12.2360 N.am   65  LEU65      -0.1979
     18  CA        32.7330   42.7350   10.9140 C.3    65  LEU65       0.1596
     19  C         32.5060   41.2070   11.0250 C.2    65  LEU65       0.2287
     20  O         31.8010   40.6310   10.1950 O.2    65  LEU65      -0.2864
     21  CB        34.0480   43.0060   10.1360 C.3    65  LEU65       0.0297
     22  CG        34.3400   44.4630    9.7140 C.3    65  LEU65       0.0022
     23  CD1       35.5650   44.4940    8.7650 C.3    65  LEU65       0.0001
     24  CD2       33.0710   45.1370    9.0550 C.3    65  LEU65       0.0001
     25  N         30.7780   39.6470   13.2460 N.3    67  ILE67      -0.1231
     26  CA        29.3550   39.4590   13.5950 C.3    67  ILE67       0.1692
     27  C         28.4340   39.8650   12.3950 C.2    67  ILE67       0.2592
     28  O         27.4420   39.1830   12.0580 O.2    67  ILE67      -0.2718
     29  CB        29.0180   40.2890   14.8810 C.3    67  ILE67       0.0266
     30  CG1       29.5530   39.5170   16.1370 C.3    67  ILE67       0.0019
     31  CG2       27.4130   40.4130   15.0730 C.3    67  ILE67       0.0020
     32  CD1       29.9980   40.4570   17.1230 C.3    67  ILE67       0.0001
     33  N         28.7690   40.9840   11.7560 N.am   68  ASP68      -0.1960
     34  CA        27.9970   41.4400   10.5850 C.3    68  ASP68       0.1840
     35  C         27.9450   40.3200    9.5120 C.2    68  ASP68       0.2622
     36  O         26.9160   40.0770    8.9090 O.2    68  ASP68      -0.2715
     37  CB        28.6950   42.7350   10.0610 C.3    68  ASP68       0.1450
     38  CG        28.1350   43.2420    8.7420 C.2    68  ASP68       0.3671
     39  OD1       26.9660   43.6670    8.7340 O.co2  68  ASP68      -0.2456
     40  OD2       28.8680   43.2070    7.7230 O.co2  68  ASP68      -0.2456
     41  N         29.0580   39.6090    9.3000 N.am   69  ASP69      -0.1971
     42  CA        29.1070   38.5800    8.2670 C.3    69  ASP69       0.1709
     43  C         28.2200   37.3850    8.6450 C.2    69  ASP69       0.2293
     44  O         27.6560   36.6700    7.7710 O.2    69  ASP69      -0.2864
     45  CB        30.5780   38.1490    7.9890 C.3    69  ASP69       0.1436
     46  CG        31.3980   39.2080    7.1480 C.2    69  ASP69       0.3671
     47  OD1       30.8040   39.9550    6.3550 O.co2  69  ASP69      -0.2456
     48  OD2       32.6450   39.2780    7.2920 O.co2  69  ASP69      -0.2456
     49  N         25.4900   37.7140   10.5250 N.3    71  GLU71      -0.1231
     50  CA        24.1560   38.3000   10.4020 C.3    71  GLU71       0.1699
     51  C         23.6760   38.4220    8.9390 C.2    71  GLU71       0.2592
     52  O         22.4440   38.3950    8.6750 O.2    71  GLU71      -0.2718
     53  CB        24.1250   39.6700   11.1270 C.3    71  GLU71       0.0402
     54  CG        24.1560   39.5370   12.6870 C.3    71  GLU71       0.1161
     55  CD        24.4920   40.8320   13.4100 C.2    71  GLU71       0.3649
     56  OE1       24.3890   40.9120   14.6870 O.co2  71  GLU71      -0.2457
     57  OE2       24.8650   41.7650   12.7030 O.co2  71  GLU71      -0.2457
     58  N         24.6330   38.5300    8.0130 N.am   72  ASP72      -0.1974
     59  CA        24.3740   38.6570    6.5560 C.3    72  ASP72       0.1709
     60  C         24.5620   37.3400    5.7610 C.2    72  ASP72       0.2293
     61  O         24.3230   37.3540    4.5560 O.2    72  ASP72      -0.2864
     62  CB        25.3210   39.6830    5.8700 C.3    72  ASP72       0.1436
     63  CG        25.1900   41.1080    6.4360 C.2    72  ASP72       0.3671
     64  OD1       24.1500   41.3950    7.0800 O.co2  72  ASP72      -0.2456
     65  OD2       26.1300   41.9510    6.2400 O.co2  72  ASP72      -0.2456
     66  N         35.0300   37.8800    2.7140 N.3    77  ARG77      -0.1245
     67  CA        35.4060   39.1470    3.3350 C.3    77  ARG77       0.1563
     68  C         36.9100   39.3610    3.0110 C.2    77  ARG77       0.2260
     69  O         37.7550   38.4660    3.2820 O.2    77  ARG77      -0.2867
     70  CB        35.2080   39.0990    4.8880 C.3    77  ARG77       0.0307
     71  CG        35.8890   40.2600    5.7180 C.3    77  ARG77       0.0489
     72  CD        35.2700   41.6670    5.5200 C.3    77  ARG77       0.2205
     73  NE        33.8890   41.7480    6.0220 N.pl3  77  ARG77      -0.0865
     74  CZ        33.0870   42.8220    5.8950 C.cat  77  ARG77       0.5346
     75  NH1       33.5260   43.9180    5.2840 N.pl3  77  ARG77       0.1354
     76  NH2       31.8300   42.7980    6.3610 N.pl3  77  ARG77       0.1354
     77  N         35.2120   42.6280   22.2530 N.3   100  TYR100     -0.1241
     78  CA        34.5480   43.9040   22.5860 C.3   100  TYR100      0.1605
     79  C         34.9880   44.3040   23.9800 C.2   100  TYR100      0.2264
     80  O         35.2700   45.5000   24.2120 O.2   100  TYR100     -0.2867
     81  CB        33.0130   43.8040   22.6120 C.3   100  TYR100      0.0534
     82  CG        32.2730   43.7710   21.2750 C.ar  100  TYR100     -0.0201
     83  CD1       30.9350   43.3220   21.2260 C.ar  100  TYR100     -0.0009
     84  CD2       32.8640   44.1880   20.0960 C.ar  100  TYR100     -0.0009
     85  CE1       30.2000   43.2870   20.0310 C.ar  100  TYR100      0.0417
     86  CE2       32.1180   44.1600   18.8660 C.ar  100  TYR100      0.0417
     87  CZ        30.7960   43.7030   18.8590 C.ar  100  TYR100      0.1957
     88  OH        30.0680   43.5940   17.6690 O.3   100  TYR100     -0.2866
     89  N         25.5630   52.2070   17.7540 N.3   131  LEU131     -0.1245
     90  CA        25.9060   51.2500   16.6710 C.3   131  LEU131      0.1561
     91  C         24.8740   50.0890   16.6640 C.2   131  LEU131      0.2260
     92  O         24.3610   49.7410   15.6040 O.2   131  LEU131     -0.2867
     93  CB        27.3520   50.6810   16.8560 C.3   131  LEU131      0.0270
     94  CG        27.7570   49.4550   15.9770 C.3   131  LEU131      0.0019
     95  CD1       27.6580   49.8240   14.5330 C.3   131  LEU131      0.0001
     96  CD2       29.1920   48.9890   16.2520 C.3   131  LEU131      0.0001
     97  N         22.1240   49.0710   13.6130 N.3   135  GLN135     -0.1245
     98  CA        22.2480   47.7380   12.9800 C.3   135  GLN135      0.1566
     99  C         20.9510   46.9200   13.2700 C.2   135  GLN135      0.2260
    100  O         20.4860   46.1500   12.4410 O.2   135  GLN135     -0.2867
    101  CB        23.4530   46.9900   13.5490 C.3   135  GLN135      0.0367
    102  CG        23.6100   45.5470   12.9860 C.3   135  GLN135      0.0905
    103  CD        24.2350   45.5110   11.6300 C.2   135  GLN135      0.2608
    104  OE1       24.1950   46.4950   10.8970 O.2   135  GLN135     -0.2717
    105  NE2       24.8040   44.3620   11.2600 N.am  135  GLN135     -0.0878
    106  N         18.3270   48.0340   10.6950 N.3   138  ASP138     -0.1239
    107  CA        18.7090   47.5900    9.3230 C.3   138  ASP138      0.1674
    108  C         18.3700   46.0810    9.1890 C.2   138  ASP138      0.2266
    109  O         17.8000   45.6340    8.1410 O.2   138  ASP138     -0.2867
    110  CB        20.2430   47.8400    9.0950 C.3   138  ASP138      0.1410
    111  CG        20.6140   48.1210    7.6230 C.2   138  ASP138      0.3668
    112  OD1       19.7430   48.3360    6.7360 O.co2 138  ASP138     -0.2456
    113  OD2       21.8240   48.1410    7.3330 O.co2 138  ASP138     -0.2456
    114  N         23.9460   53.8560   13.0820 N.3   162  LYS162     -0.1231
    115  CA        24.8650   52.7850   12.6300 C.3   162  LYS162      0.1693
    116  C         26.2580   53.2230   12.1640 C.2   162  LYS162      0.2592
    117  O         27.2370   53.0210   12.8780 O.2   162  LYS162     -0.2718
    118  CB        24.2060   51.9330   11.4940 C.3   162  LYS162      0.0285
    119  CG        25.0160   50.7090   10.9980 C.3   162  LYS162      0.0035
    120  CD        24.3540   49.9350    9.8410 C.3   162  LYS162      0.0206
    121  CE        24.3370   50.7950    8.5090 C.3   162  LYS162      0.1093
    122  NZ        23.9290   50.0790    7.1760 N.3   162  LYS162     -0.1314
    123  N         26.3490   53.7940   10.9610 N.am  163  THR163     -0.1953
    124  CA        27.6380   54.2400   10.4460 C.3   163  THR163      0.1897
    125  C         28.1680   55.4290   11.2800 C.2   163  THR163      0.2313
    126  O         29.3740   55.5020   11.5620 O.2   163  THR163     -0.2863
    127  CB        27.5210   54.6390    8.9780 C.3   163  THR163      0.1794
    128  OG1       27.1110   53.4960    8.2390 O.3   163  THR163     -0.2208
    129  CG2       28.8460   55.1230    8.4240 C.3   163  THR163      0.0378
    130  N         28.4640   55.8580    3.5400 N.3   193  GLN193     -0.1245
    131  CA        27.4500   54.7760    3.4710 C.3   193  GLN193      0.1566
    132  C         26.6200   54.7980    2.1770 C.2   193  GLN193      0.2260
    133  O         26.3760   53.7520    1.5690 O.2   193  GLN193     -0.2867
    134  CB        26.4640   54.8230    4.6780 C.3   193  GLN193      0.0367
    135  CG        25.5070   53.5610    4.6780 C.3   193  GLN193      0.0905
    136  CD        26.2790   52.2630    4.8390 C.2   193  GLN193      0.2608
    137  OE1       26.9520   52.0500    5.8710 O.2   193  GLN193     -0.2717
    138  NE2       26.2240   51.3970    3.8300 N.am  193  GLN193     -0.0878
    139  N         28.9210   53.6550   -0.7310 N.3   196  ASP196     -0.1239
    140  CA        29.1370   52.1980   -0.6260 C.3   196  ASP196      0.1674
    141  C         27.8980   51.4590   -1.2620 C.2   196  ASP196      0.2266
    142  O         28.0830   50.5470   -2.0760 O.2   196  ASP196     -0.2867
    143  CB        29.2710   51.8260    0.8500 C.3   196  ASP196      0.1410
    144  CG        29.6510   50.3540    1.1010 C.2   196  ASP196      0.3668
    145  OD1       29.5310   49.9300    2.2590 O.co2 196  ASP196     -0.2456
    146  OD2       30.0930   49.6080    0.2210 O.co2 196  ASP196     -0.2456
    147  N         24.7800   42.9420   -2.1110 N.3   209  ASP209     -0.1239
    148  CA        23.6920   43.6060   -1.3200 C.3   209  ASP209      0.1674
    149  C         22.3050   43.0820   -1.7750 C.2   209  ASP209      0.2266
    150  O         21.3500   43.0780   -0.9860 O.2   209  ASP209     -0.2867
    151  CB        23.7220   45.1640   -1.4650 C.3   209  ASP209      0.1410
    152  CG        24.8830   45.8200   -0.6660 C.2   209  ASP209      0.3668
    153  OD1       25.5740   45.1020    0.0570 O.co2 209  ASP209     -0.2456
    154  OD2       25.0910   47.0400   -0.7360 O.co2 209  ASP209     -0.2456
    155  N         21.6280   39.5890   -0.3260 N.3   212  GLU212     -0.1245
    156  CA        21.3290   39.8140    1.0660 C.3   212  GLU212      0.1567
    157  C         19.9290   40.4050    1.3250 C.2   212  GLU212      0.2260
    158  O         19.4650   40.3240    2.4450 O.2   212  GLU212     -0.2867
    159  CB        22.4410   40.7270    1.6670 C.3   212  GLU212      0.0388
    160  CG        22.2790   41.0700    3.1360 C.3   212  GLU212      0.1160
    161  CD        23.1540   42.2720    3.6110 C.2   212  GLU212      0.3649
    162  OE1       22.6790   43.0100    4.5420 O.co2 212  GLU212     -0.2457
    163  OE2       24.2810   42.4460    3.0640 O.co2 212  GLU212     -0.2457
    164  N         19.0230   43.6650    1.2870 N.3   214  LYS214     -0.1245
    165  CA        19.1690   44.9460    2.0190 C.3   214  LYS214      0.1561
    166  C         18.3260   46.1420    1.5240 C.2   214  LYS214      0.2260
    167  O         18.1680   46.3340    0.3070 O.2   214  LYS214     -0.2867
    168  CB        20.6690   45.2860    1.9880 C.3   214  LYS214      0.0271
    169  CG        21.2040   46.4000    2.8420 C.3   214  LYS214      0.0035
    170  CD        22.7520   46.4650    2.6030 C.3   214  LYS214      0.0206
    171  CE        23.4030   47.6820    3.3090 C.3   214  LYS214      0.1093
    172  NZ        24.9020   47.5820    3.4150 N.3   214  LYS214     -0.1314
@<TRIPOS>BOND
     1   147   148    1
     2   142   141    2
     3   149   148    1
     4   149   150    2
     5   151   148    1
     6   151   152    1
     7   141   140    1
     8   154   152   ar
     9   139   140    1
    10   152   153   ar
    11   140   143    1
    12   155   156    1
    13   146   144   ar
    14   167   166    2
    15   143   144    1
    16   156   157    1
    17   156   159    1
    18   144   145   ar
    19   164   165    1
    20   157   158    2
    21   166   165    1
    22   133   132    2
    23   159   160    1
    24   168   165    1
    25   168   169    1
    26   132   131    1
    27   170   169    1
    28   170   171    1
    29    66    67    1
    30    68    69    2
    31    68    67    1
    32   163   161   ar
    33   160   161    1
    34   171   172    1
    35    67    70    1
    36   131   130    1
    37   131   134    1
    38   161   162   ar
    39   138   136   am
    40    61    60    2
    41   135   134    1
    42   135   136    1
    43   136   137    2
    44    70    71    1
    45    75    74    1
    46    72    71    1
    47    72    73    1
    48    60    59    1
    49    62    63    1
    50    62    59    1
    51    74    73    2
    52    74    76    1
    53    65    63   ar
    54    47    46   ar
    55    63    64   ar
    56    59    58    1
    57   112   111   ar
    58    46    48   ar
    59    46    45    1
    60   122   121    1
    61   113   111   ar
    62   111   110    1
    63    40    38   ar
    64    44    43    2
    65    45    42    1
    66    58    51   am
    67   109   108    2
    68   128   127    1
    69    42    43    1
    70    42    41    1
    71   129   127    1
    72   121   120    1
    73    52    51    2
    74    39    38   ar
    75    38    37    1
    76    23    22    1
    77    36    35    2
    78    51    50    1
    79   127   124    1
    80    24    22    1
    81   110   107    1
    82   108   107    1
    83    41    35   am
    84   107   106    1
    85    10     9   ar
    86    10     8   ar
    87    35    34    1
    88     9     7   ar
    89    22    21    1
    90   120   119    1
    91    37    34    1
    92    21    18    1
    93    20    19    2
    94    50    49    1
    95    50    53    1
    96   124   123    1
    97   124   125    1
    98     8     6   ar
    99    34    33    1
   100   104   103    2
   101    18    19    1
   102    18    17    1
   103     7     6   ar
   104   123   116   am
   105   119   118    1
   106    53    54    1
   107   105   103   am
   108   125   126    2
   109   118   115    1
   110     6     5    1
   111   103   102    1
   112    33    27   am
   113    28    27    2
   114   116   115    1
   115   116   117    2
   116    17    13   am
   117    27    26    1
   118   100    99    2
   119   115   114    1
   120    54    55    1
   121    57    55   ar
   122    14    13    2
   123     4     3    2
   124    98    99    1
   125    98   101    1
   126    98    97    1
   127   102   101    1
   128     5     2    1
   129    13    12    1
   130    25    26    1
   131     3     2    1
   132    55    56   ar
   133    26    29    1
   134     2     1    1
   135    15    12    1
   136    15    16    1
   137    12    11    1
   138    95    94    1
   139    29    31    1
   140    29    30    1
   141    92    91    2
   142    94    96    1
   143    94    93    1
   144    30    32    1
   145    91    90    1
   146    90    93    1
   147    90    89    1
   148    88    87    1
   149    87    86   ar
   150    87    85   ar
   151    86    84   ar
   152    85    83   ar
   153    84    82   ar
   154    83    82   ar
   155    82    81    1
   156    77    78    1
   157    78    81    1
   158    78    79    1
   159    79    80    2
