@<TRIPOS>MOLECULE
tmp/2z52B00.pdb
 209 195 0 0 0
SMALL
GASTEIGER

@<TRIPOS>ATOM
      1  N         21.8930   39.4180   31.5460 N.3    64  LEU64      -0.1245
      2  CA        23.0280   38.6000   31.1130 C.3    64  LEU64       0.1561
      3  C         22.6720   37.1270   31.0330 C.2    64  LEU64       0.2260
      4  O         22.9880   36.4090   30.0650 O.2    64  LEU64      -0.2867
      5  CB        24.1870   38.7690   32.0840 C.3    64  LEU64       0.0270
      6  CG        24.8790   40.1360   32.0330 C.3    64  LEU64       0.0019
      7  CD1       26.1060   40.0890   32.9780 C.3    64  LEU64       0.0001
      8  CD2       25.3680   40.4320   30.5900 C.3    64  LEU64       0.0001
      9  N         22.5420   35.1800   27.5410 N.3    68  SER68      -0.1202
     10  CA        23.5010   34.1170   27.3540 C.3    68  SER68       0.2020
     11  C         22.7810   32.8300   26.9020 C.2    68  SER68       0.2618
     12  O         23.3660   32.0420   26.1540 O.2    68  SER68      -0.2717
     13  CB        24.2610   33.8740   28.6540 C.3    68  SER68       0.2103
     14  OG        23.4660   33.1400   29.5520 O.3    68  SER68      -0.2182
     15  N         21.5220   32.6180   27.3110 N.am   69  LEU69      -0.1979
     16  CA        20.7660   31.3880   26.8910 C.3    69  LEU69       0.1596
     17  C         20.2910   31.4820   25.4310 C.2    69  LEU69       0.2287
     18  O         20.2550   30.4720   24.7070 O.2    69  LEU69      -0.2864
     19  CB        19.5400   31.1610   27.7750 C.3    69  LEU69       0.0297
     20  CG        19.8130   31.0120   29.2760 C.3    69  LEU69       0.0022
     21  CD1       18.4590   30.6460   30.0190 C.3    69  LEU69       0.0001
     22  CD2       20.8970   29.9180   29.4480 C.3    69  LEU69       0.0001
     23  N         21.9180   32.9620   23.0820 N.3    71  ILE71      -0.1231
     24  CA        23.1660   32.7460   22.3020 C.3    71  ILE71       0.1692
     25  C         23.5690   31.2720   22.4460 C.2    71  ILE71       0.2592
     26  O         23.9170   30.6050   21.4760 O.2    71  ILE71      -0.2718
     27  CB        24.2940   33.7040   22.8400 C.3    71  ILE71       0.0266
     28  CG1       23.9820   35.1500   22.4090 C.3    71  ILE71       0.0019
     29  CG2       25.6900   33.3290   22.2700 C.3    71  ILE71       0.0020
     30  CD1       24.1490   35.3330   20.9450 C.3    71  ILE71       0.0001
     31  N         23.4790   30.7580   23.6720 N.am   72  ASP72      -0.1960
     32  CA        23.8240   29.3850   23.9030 C.3    72  ASP72       0.1840
     33  C         22.9500   28.4070   23.1030 C.2    72  ASP72       0.2622
     34  O         23.4670   27.4220   22.5810 O.2    72  ASP72      -0.2715
     35  CB        23.7510   29.0500   25.3860 C.3    72  ASP72       0.1450
     36  CG        24.0600   27.5800   25.6590 C.2    72  ASP72       0.3671
     37  OD1       23.1160   26.8040   25.8990 O.co2  72  ASP72      -0.2456
     38  OD2       25.2510   27.1880   25.6200 O.co2  72  ASP72      -0.2456
     39  N         21.6440   28.6720   22.9840 N.am   73  ASP73      -0.1971
     40  CA        20.7910   27.7600   22.2250 C.3    73  ASP73       0.1709
     41  C         21.1320   27.7800   20.7440 C.2    73  ASP73       0.2293
     42  O         20.9490   26.7680   20.0570 O.2    73  ASP73      -0.2864
     43  CB        19.3100   28.0700   22.4640 C.3    73  ASP73       0.1436
     44  CG        18.8680   27.6980   23.8810 C.2    73  ASP73       0.3671
     45  OD1       19.4350   26.7530   24.5120 O.co2  73  ASP73      -0.2456
     46  OD2       17.9400   28.3810   24.3590 O.co2  73  ASP73      -0.2456
     47  N         24.2780   28.3290   19.7230 N.3    75  GLU75      -0.1231
     48  CA        25.5510   27.6000   19.7160 C.3    75  GLU75       0.1699
     49  C         25.3650   26.0780   19.8770 C.2    75  GLU75       0.2592
     50  O         26.1980   25.2750   19.3600 O.2    75  GLU75      -0.2718
     51  CB        26.4660   28.1540   20.8140 C.3    75  GLU75       0.0402
     52  CG        26.9840   29.5490   20.4170 C.3    75  GLU75       0.1161
     53  CD        27.5540   30.3450   21.5740 C.2    75  GLU75       0.3649
     54  OE1       28.1860   31.4060   21.3230 O.co2  75  GLU75      -0.2457
     55  OE2       27.3780   29.9070   22.7410 O.co2  75  GLU75      -0.2457
     56  N         24.2570   25.6990   20.5630 N.am   76  ASP76      -0.1974
     57  CA        23.9800   24.3070   20.7930 C.3    76  ASP76       0.1709
     58  C         22.8740   23.7410   19.9020 C.2    76  ASP76       0.2293
     59  O         22.4680   22.6100   20.0620 O.2    76  ASP76      -0.2864
     60  CB        23.6850   24.0790   22.3010 C.3    76  ASP76       0.1436
     61  CG        24.8270   24.5870   23.1560 C.2    76  ASP76       0.3671
     62  OD1       25.8830   24.9170   22.5710 O.co2  76  ASP76      -0.2456
     63  OD2       24.7070   24.6790   24.3750 O.co2  76  ASP76      -0.2456
     64  N         13.7560   25.3950   25.0460 N.3    81  ARG81      -0.1245
     65  CA        14.2660   26.0080   26.2720 C.3    81  ARG81       0.1563
     66  C         13.0080   26.3280   27.1100 C.2    81  ARG81       0.2260
     67  O         12.0330   26.8930   26.6000 O.2    81  ARG81      -0.2867
     68  CB        15.0190   27.2970   25.9410 C.3    81  ARG81       0.0307
     69  CG        15.1660   28.2910   27.0910 C.3    81  ARG81       0.0489
     70  CD        16.3000   27.9140   28.0110 C.3    81  ARG81       0.2205
     71  NE        17.5460   27.7500   27.2620 N.pl3  81  ARG81      -0.0865
     72  CZ        18.6590   27.2580   27.7980 C.cat  81  ARG81       0.5346
     73  NH1       18.6530   26.9040   29.0820 N.pl3  81  ARG81       0.1354
     74  NH2       19.7670   27.1170   27.0770 N.pl3  81  ARG81       0.1354
     75  N         23.5960   42.5510   26.3160 N.3   104  TYR104     -0.1241
     76  CA        24.8460   42.5070   27.0920 C.3   104  TYR104      0.1605
     77  C         25.2150   43.9500   27.4140 C.2   104  TYR104      0.2264
     78  O         25.7030   44.2650   28.5080 O.2   104  TYR104     -0.2867
     79  CB        26.0080   41.9390   26.2600 C.3   104  TYR104      0.0534
     80  CG        25.9630   40.4630   25.9070 C.ar  104  TYR104     -0.0201
     81  CD1       26.9540   39.9150   25.0900 C.ar  104  TYR104     -0.0009
     82  CD2       24.9990   39.5940   26.4590 C.ar  104  TYR104     -0.0009
     83  CE1       27.0010   38.5040   24.8320 C.ar  104  TYR104      0.0417
     84  CE2       25.0230   38.2110   26.2070 C.ar  104  TYR104      0.0417
     85  CZ        26.0420   37.6800   25.3760 C.ar  104  TYR104      0.1957
     86  OH        26.0500   36.3530   25.0170 O.3   104  TYR104     -0.2866
     87  N         32.7410   38.7210   32.1970 N.3   132  LEU132     -0.1245
     88  CA        32.2220   38.4950   30.8450 C.3   132  LEU132      0.1561
     89  C         33.3520   37.8180   30.0410 C.2   132  LEU132      0.2260
     90  O         33.1000   36.8970   29.2340 O.2   132  LEU132     -0.2867
     91  CB        31.8190   39.8170   30.2000 C.3   132  LEU132      0.0270
     92  CG        30.2960   40.0960   30.2660 C.3   132  LEU132      0.0019
     93  CD1       29.5210   39.1200   29.3320 C.3   132  LEU132      0.0001
     94  CD2       29.8190   39.9010   31.6960 C.3   132  LEU132      0.0001
     95  N         33.4390   34.1040   31.1460 N.3   135  LEU135     -0.1231
     96  CA        32.3090   33.3150   30.6370 C.3   135  LEU135      0.1693
     97  C         32.5700   32.9500   29.1860 C.2   135  LEU135      0.2592
     98  O         32.3240   31.8300   28.7960 O.2   135  LEU135     -0.2718
     99  CB        30.9660   34.0780   30.7170 C.3   135  LEU135      0.0284
    100  CG        30.3590   34.4100   32.0880 C.3   135  LEU135      0.0019
    101  CD1       29.2460   35.4750   31.8800 C.3   135  LEU135      0.0001
    102  CD2       29.7630   33.1750   32.7940 C.3   135  LEU135      0.0001
    103  N         33.0690   33.8980   28.3940 N.am  136  HIS136     -0.1976
    104  CA        33.3420   33.6050   26.9780 C.3   136  HIS136      0.1656
    105  C         34.4900   32.6360   26.7410 C.2   136  HIS136      0.2291
    106  O         34.4420   31.8600   25.8110 O.2   136  HIS136     -0.2864
    107  CB        33.5730   34.9070   26.2020 C.3   136  HIS136      0.0771
    108  CG        32.3180   35.6910   26.0330 C.ar  136  HIS136      0.0820
    109  ND1       31.5260   35.5980   24.9070 N.ar  136  HIS136     -0.2267
    110  CD2       31.6980   36.5530   26.8610 C.ar  136  HIS136      0.1154
    111  CE1       30.4760   36.3820   25.0400 C.ar  136  HIS136      0.1986
    112  NE2       30.5560   36.9740   26.2210 N.ar  136  HIS136     -0.2212
    113  N         32.9840   29.2080   27.6820 N.3   139  GLN139     -0.1245
    114  CA        32.0690   28.7910   26.6130 C.3   139  GLN139      0.1566
    115  C         32.9400   28.4200   25.3940 C.2   139  GLN139      0.2260
    116  O         32.7440   27.4060   24.7570 O.2   139  GLN139     -0.2867
    117  CB        31.1430   29.9550   26.2180 C.3   139  GLN139      0.0367
    118  CG        30.0930   29.5750   25.1740 C.3   139  GLN139      0.0905
    119  CD        28.9580   28.7590   25.7490 C.2   139  GLN139      0.2608
    120  OE1       27.8430   28.7270   25.1920 O.2   139  GLN139     -0.2717
    121  NE2       29.2110   28.0990   26.8550 N.am  139  GLN139     -0.0878
    122  N         34.4480   25.0090   25.8410 N.3   142  ASP142     -0.1239
    123  CA        33.4540   23.9450   25.8430 C.3   142  ASP142      0.1674
    124  C         33.0140   23.6830   24.3580 C.2   142  ASP142      0.2266
    125  O         32.9320   22.5360   23.8890 O.2   142  ASP142     -0.2867
    126  CB        32.3110   24.3650   26.7740 C.3   142  ASP142      0.1410
    127  CG        31.4650   23.1910   27.2630 C.2   142  ASP142      0.3668
    128  OD1       32.0080   22.0790   27.5080 O.co2 142  ASP142     -0.2456
    129  OD2       30.2430   23.3870   27.4200 O.co2 142  ASP142     -0.2456
    130  N         33.2870   29.1480   32.6770 N.3   166  LYS166     -0.1245
    131  CA        31.9360   29.1500   32.1180 C.3   166  LYS166      0.1561
    132  C         30.7480   29.3380   33.0700 C.2   166  LYS166      0.2260
    133  O         29.9320   30.2420   32.8760 O.2   166  LYS166     -0.2867
    134  CB        31.6930   27.8800   31.2700 C.3   166  LYS166      0.0271
    135  CG        30.3470   27.9290   30.5090 C.3   166  LYS166      0.0035
    136  CD        30.0050   26.6360   29.7720 C.3   166  LYS166      0.0206
    137  CE        29.4760   25.5750   30.7340 C.3   166  LYS166      0.1093
    138  NZ        28.0910   25.9430   31.1810 N.3   166  LYS166     -0.1314
    139  N         28.8880   33.9030   35.9010 N.3   170  LEU170     -0.1245
    140  CA        27.7950   34.7200   36.4140 C.3   170  LEU170      0.1561
    141  C         27.6530   34.6620   37.9310 C.2   170  LEU170      0.2260
    142  O         27.2370   35.6390   38.5530 O.2   170  LEU170     -0.2867
    143  CB        26.4480   34.3230   35.8320 C.3   170  LEU170      0.0270
    144  CG        25.9150   34.8790   34.5340 C.3   170  LEU170      0.0019
    145  CD1       24.3740   34.8210   34.6580 C.3   170  LEU170      0.0001
    146  CD2       26.4170   36.3150   34.2860 C.3   170  LEU170      0.0001
    147  N         26.4940   22.9760   40.5120 N.3   198  TYR198     -0.1227
    148  CA        25.4140   23.2610   39.6260 C.3   198  TYR198      0.1736
    149  C         25.6430   22.6970   38.2170 C.2   198  TYR198      0.2595
    150  O         24.7320   22.0800   37.6090 O.2   198  TYR198     -0.2718
    151  CB        25.2510   24.7710   39.5260 C.3   198  TYR198      0.0548
    152  CG        23.9600   25.0960   38.8780 C.ar  198  TYR198     -0.0200
    153  CD1       22.7700   25.0510   39.6090 C.ar  198  TYR198     -0.0009
    154  CD2       23.9010   25.3490   37.5040 C.ar  198  TYR198     -0.0009
    155  CE1       21.5580   25.2450   38.9910 C.ar  198  TYR198      0.0417
    156  CE2       22.6920   25.5440   36.8730 C.ar  198  TYR198      0.0417
    157  CZ        21.5290   25.4900   37.6250 C.ar  198  TYR198      0.1957
    158  OH        20.3040   25.6830   37.0200 O.3   198  TYR198     -0.2866
    159  N         26.8580   22.9050   37.6980 N.am  199  GLN199     -0.1979
    160  CA        27.1190   22.4710   36.3380 C.3   199  GLN199      0.1601
    161  C         27.2000   20.9450   36.2600 C.2   199  GLN199      0.2287
    162  O         26.7020   20.3260   35.3010 O.2   199  GLN199     -0.2864
    163  CB        28.4110   23.0730   35.7860 C.3   199  GLN199      0.0394
    164  CG        28.6410   22.6030   34.3190 C.3   199  GLN199      0.0908
    165  CD        27.5540   23.1380   33.4200 C.2   199  GLN199      0.2608
    166  OE1       27.3120   24.3460   33.4210 O.2   199  GLN199     -0.2717
    167  NE2       26.8500   22.2590   32.7000 N.am  199  GLN199     -0.0878
    168  N         23.7350   19.5830   36.4450 N.3   202  ASP202     -0.1225
    169  CA        23.0680   19.7560   35.1830 C.3   202  ASP202      0.1805
    170  C         23.4130   18.6560   34.1860 C.2   202  ASP202      0.2597
    171  O         22.4970   18.0870   33.5900 O.2   202  ASP202     -0.2718
    172  CB        23.4270   21.0930   34.5650 C.3   202  ASP202      0.1424
    173  CG        22.2270   21.7720   34.0700 C.2   202  ASP202      0.3668
    174  OD1       21.5130   22.2540   35.0150 O.co2 202  ASP202     -0.2456
    175  OD2       21.9760   21.7380   32.7890 O.co2 202  ASP202     -0.2456
    176  N         24.7170   18.3710   34.0130 N.am  203  ASP203     -0.1974
    177  CA        25.1940   17.3130   33.0860 C.3   203  ASP203      0.1709
    178  C         24.6480   15.9650   33.5220 C.2   203  ASP203      0.2293
    179  O         24.2600   15.1240   32.7050 O.2   203  ASP203     -0.2864
    180  CB        26.7310   17.1980   33.0730 C.3   203  ASP203      0.1436
    181  CG        27.4340   18.4160   32.4310 C.2   203  ASP203      0.3671
    182  OD1       26.7440   19.3510   31.9570 O.co2 203  ASP203     -0.2456
    183  OD2       28.6840   18.4240   32.4420 O.co2 203  ASP203     -0.2456
    184  N         22.0560   16.7310   25.6020 N.3   215  ASP215     -0.1239
    185  CA        23.5010   16.8300   25.6540 C.3   215  ASP215      0.1674
    186  C         24.2050   15.8060   24.7360 C.2   215  ASP215      0.2266
    187  O         25.2950   16.0450   24.2450 O.2   215  ASP215     -0.2867
    188  CB        23.9670   16.6430   27.0790 C.3   215  ASP215      0.1410
    189  CG        23.7920   17.8920   27.9160 C.2   215  ASP215      0.3668
    190  OD1       23.3380   18.9480   27.4110 O.co2 215  ASP215     -0.2456
    191  OD2       24.1340   17.8440   29.0830 O.co2 215  ASP215     -0.2456
    192  N         23.7460   17.0450   21.2110 N.3   218  GLU218     -0.1245
    193  CA        24.6220   18.1820   21.0240 C.3   218  GLU218      0.1567
    194  C         26.0760   17.7110   20.9060 C.2   218  GLU218      0.2260
    195  O         26.8940   18.3780   20.2310 O.2   218  GLU218     -0.2867
    196  CB        24.4910   19.1640   22.2050 C.3   218  GLU218      0.0388
    197  CG        25.4050   20.3850   22.0410 C.3   218  GLU218      0.1160
    198  CD        25.5810   21.1760   23.3350 C.2   218  GLU218      0.3649
    199  OE1       24.6480   21.1080   24.1690 O.co2 218  GLU218     -0.2457
    200  OE2       26.6130   21.8690   23.4860 O.co2 218  GLU218     -0.2457
    201  N         28.2520   17.2570   23.5400 N.3   220  LYS220     -0.1245
    202  CA        29.1310   17.9640   24.4670 C.3   220  LYS220      0.1561
    203  C         29.9710   17.0860   25.4120 C.2   220  LYS220      0.2260
    204  O         29.5780   15.9730   25.7610 O.2   220  LYS220     -0.2867
    205  CB        28.3150   19.0010   25.2530 C.3   220  LYS220      0.0271
    206  CG        27.7720   18.5050   26.5790 C.3   220  LYS220      0.0035
    207  CD        26.4910   19.2320   27.0220 C.3   220  LYS220      0.0206
    208  CE        26.6140   20.7250   27.2230 C.3   220  LYS220      0.1093
    209  NZ        26.8790   21.1040   28.6250 N.3   220  LYS220     -0.1314
@<TRIPOS>BOND
     1    50    49    2
     2    48    47    1
     3    48    49    1
     4    48    51    1
     5    49    56   am
     6    58    59    2
     7    58    57    1
     8    42    41    2
     9   195   194    2
    10    52    51    1
    11    52    53    1
    12    56    57    1
    13    41    40    1
    14    57    60    1
    15   194   193    1
    16    30    28    1
    17   193   192    1
    18   193   196    1
    19    54    53   ar
    20    26    25    2
    21    53    55   ar
    22   197   196    1
    23   197   198    1
    24    40    43    1
    25    40    39    1
    26    29    27    1
    27    60    61    1
    28    24    25    1
    29    24    27    1
    30    24    23    1
    31    28    27    1
    32    25    31   am
    33    43    44    1
    34    62    61   ar
    35    34    33    2
    36    39    33   am
    37    33    32    1
    38    61    63   ar
    39   198   200   ar
    40   198   199   ar
    41   201   202    1
    42    31    32    1
    43    44    46   ar
    44    44    45   ar
    45   125   124    2
    46    32    35    1
    47   187   186    2
    48   124   123    1
    49   202   205    1
    50   202   203    1
    51    18    17    2
    52   186   185    1
    53   116   115    2
    54    83    81   ar
    55    83    85   ar
    56   109   111   ar
    57   109   108   ar
    58    86    85    1
    59   111   112   ar
    60    64    65    1
    61    81    80   ar
    62   118   119    1
    63   118   117    1
    64   120   119    2
    65   205   206    1
    66    85    84   ar
    67    35    36    1
    68   115   114    1
    69   203   204    2
    70    17    16    1
    71   184   185    1
    72    38    36   ar
    73   185   188    1
    74    36    37   ar
    75   119   121   am
    76   106   105    2
    77   122   123    1
    78   123   126    1
    79    80    79    1
    80    80    82   ar
    81    68    65    1
    82    68    69    1
    83   108   107    1
    84   108   110   ar
    85    12    11    2
    86   107   104    1
    87    84    82   ar
    88   117   114    1
    89   112   110   ar
    90    79    76    1
    91    65    66    1
    92    75    76    1
    93   206   207    1
    94    67    66    2
    95   114   113    1
    96   105   104    1
    97   126   127    1
    98    16    15    1
    99    16    19    1
   100    11    15   am
   101    11    10    1
   102   104   103    1
   103   207   208    1
   104    74    72    1
   105   188   189    1
   106    69    70    1
   107    76    77    1
   108   208   209    1
   109    71    72    2
   110    71    70    1
   111   127   129   ar
   112   127   128   ar
   113    10     9    1
   114    10    13    1
   115   190   189   ar
   116    77    78    2
   117    19    20    1
   118    72    73    1
   119   189   191   ar
   120   103    97   am
   121    13    14    1
   122    98    97    2
   123    97    96    1
   124    90    89    2
   125    20    22    1
   126    20    21    1
   127    93    92    1
   128   136   135    1
   129   136   137    1
   130    89    88    1
   131     4     3    2
   132    91    92    1
   133    91    88    1
   134    92    94    1
   135   135   134    1
   136     8     6    1
   137    96    99    1
   138    96    95    1
   139    99   100    1
   140   137   138    1
   141    88    87    1
   142     3     2    1
   143     2     1    1
   144     2     5    1
   145   134   131    1
   146   101   100    1
   147   182   181   ar
   148     6     5    1
   149     6     7    1
   150   100   102    1
   151   131   130    1
   152   131   132    1
   153   181   183   ar
   154   181   180    1
   155   167   165   am
   156   179   178    2
   157   175   173   ar
   158   133   132    2
   159   180   177    1
   160   177   178    1
   161   177   176    1
   162   165   166    2
   163   165   164    1
   164   171   170    2
   165   176   170   am
   166   173   172    1
   167   173   174   ar
   168   170   169    1
   169   146   144    1
   170   164   163    1
   171   144   145    1
   172   144   143    1
   173   172   169    1
   174   169   168    1
   175   162   161    2
   176   163   160    1
   177   143   140    1
   178   139   140    1
   179   161   160    1
   180   160   159    1
   181   140   141    1
   182   156   154   ar
   183   156   157   ar
   184   158   157    1
   185   154   152   ar
   186   150   149    2
   187   157   155   ar
   188   159   149   am
   189   141   142    2
   190   149   148    1
   191   152   151    1
   192   152   153   ar
   193   155   153   ar
   194   151   148    1
   195   148   147    1
