@<TRIPOS>MOLECULE
tmp/2z55A02.pdb
 131 121 0 0 0
SMALL
GASTEIGER

@<TRIPOS>ATOM
      1  N          4.4790  -11.1500   19.8970 N.3   109  ASP109     -0.1239
      2  CA         4.8290   -9.7400   19.9550 C.3   109  ASP109      0.1674
      3  C          4.7550   -9.0970   18.5800 C.2   109  ASP109      0.2266
      4  O          4.7820   -9.7920   17.5630 O.2   109  ASP109     -0.2867
      5  CB         6.2270   -9.5710   20.5680 C.3   109  ASP109      0.1410
      6  CG         7.3310  -10.1930   19.7270 C.2   109  ASP109      0.3668
      7  OD1        8.3720  -10.5540   20.3090 O.co2 109  ASP109     -0.2456
      8  OD2        7.1820  -10.3080   18.4970 O.co2 109  ASP109     -0.2456
      9  N          6.8800   -7.5480   16.8510 N.3   111  VAL111     -0.1231
     10  CA         8.0390   -7.7330   15.9850 C.3   111  VAL111      0.1692
     11  C          7.8400   -8.9690   15.1090 C.2   111  VAL111      0.2592
     12  O          8.0990   -8.9450   13.9010 O.2   111  VAL111     -0.2718
     13  CB         9.3310   -7.9220   16.8060 C.3   111  VAL111      0.0266
     14  CG1       10.5390   -7.9320   15.8840 C.3   111  VAL111      0.0020
     15  CG2        9.4540   -6.8170   17.8330 C.3   111  VAL111      0.0020
     16  N          7.3820  -10.0520   15.7250 N.am  112  THR112     -0.1953
     17  CA         7.1590  -11.2830   14.9880 C.3   112  THR112      0.1897
     18  C          6.1420  -11.0220   13.8830 C.2   112  THR112      0.2313
     19  O          6.3800  -11.3580   12.7250 O.2   112  THR112     -0.2863
     20  CB         6.6360  -12.3990   15.9080 C.3   112  THR112      0.1794
     21  OG1        7.4250  -12.4460   17.0990 O.3   112  THR112     -0.2208
     22  CG2        6.7300  -13.7510   15.2060 C.3   112  THR112      0.0378
     23  N          7.5450   -9.0250   11.0950 N.3   115  THR115     -0.1218
     24  CA         8.4140   -9.8380   10.2660 C.3   115  THR115      0.1862
     25  C          7.5170  -10.6460    9.3290 C.2   115  THR115      0.2287
     26  O          7.7550  -10.6980    8.1220 O.2   115  THR115     -0.2866
     27  CB         9.2880  -10.7740   11.1370 C.3   115  THR115      0.1770
     28  OG1       10.2580   -9.9850   11.8410 O.3   115  THR115     -0.2211
     29  CG2       10.0040  -11.8220   10.2800 C.3   115  THR115      0.0375
     30  N          5.8420   -8.5010    6.4240 N.3   118  GLY118     -0.1210
     31  CA         6.9020   -8.0770    5.5210 C.3   118  GLY118      0.1956
     32  C          7.4370   -9.1650    4.6120 C.2   118  GLY118      0.2611
     33  O          7.5190   -8.9880    3.3890 O.2   118  GLY118     -0.2717
     34  N          7.8020  -10.3030    5.1920 N.am  119  VAL119     -0.1979
     35  CA         8.3300  -11.3990    4.3860 C.3   119  VAL119      0.1595
     36  C          7.2450  -11.9820    3.4650 C.2   119  VAL119      0.2287
     37  O          7.5090  -12.2880    2.3020 O.2   119  VAL119     -0.2864
     38  CB         8.9570  -12.5110    5.2950 C.3   119  VAL119      0.0276
     39  CG1        9.4440  -13.6760    4.4620 C.3   119  VAL119      0.0022
     40  CG2       10.1350  -11.9340    6.0580 C.3   119  VAL119      0.0022
     41  N          6.5850   -9.6870    0.5530 N.3   122  LEU122     -0.1245
     42  CA         7.7550   -9.7410   -0.3200 C.3   122  LEU122      0.1561
     43  C          7.5140  -10.9260   -1.2390 C.2   122  LEU122      0.2260
     44  O          7.7560  -10.8660   -2.4390 O.2   122  LEU122     -0.2867
     45  CB         9.0160   -9.9650    0.5240 C.3   122  LEU122      0.0270
     46  CG        10.4070   -9.9600   -0.1040 C.3   122  LEU122      0.0019
     47  CD1       10.7230   -8.5970   -0.6610 C.3   122  LEU122      0.0001
     48  CD2       11.4240  -10.3390    0.9650 C.3   122  LEU122      0.0001
     49  N         10.8510  -13.5360  -19.8220 N.3   135  THR135     -0.1218
     50  CA        11.8300  -14.5940  -20.0440 C.3   135  THR135      0.1862
     51  C         11.6470  -15.7050  -19.0000 C.2   135  THR135      0.2287
     52  O         11.2360  -15.4400  -17.8660 O.2   135  THR135     -0.2866
     53  CB        13.2860  -14.0250  -19.9650 C.3   135  THR135      0.1770
     54  OG1       13.5160  -13.1330  -21.0680 O.3   135  THR135     -0.2211
     55  CG2       14.3190  -15.1440  -20.0060 C.3   135  THR135      0.0375
     56  N         14.0310  -17.5510  -17.7540 N.3   137  LEU137     -0.1245
     57  CA        15.1170  -17.4180  -16.8000 C.3   137  LEU137      0.1561
     58  C         14.5710  -16.6040  -15.6410 C.2   137  LEU137      0.2260
     59  O         14.6320  -17.0280  -14.4900 O.2   137  LEU137     -0.2867
     60  CB        16.3100  -16.6930  -17.4330 C.3   137  LEU137      0.0270
     61  CG        17.4260  -16.2810  -16.4680 C.3   137  LEU137      0.0019
     62  CD1       17.8510  -17.4880  -15.6480 C.3   137  LEU137      0.0001
     63  CD2       18.6030  -15.6990  -17.2320 C.3   137  LEU137      0.0001
     64  N         13.5830  -17.5530  -11.6360 N.3   141  THR141     -0.1218
     65  CA        14.3910  -16.9400  -10.5900 C.3   141  THR141      0.1862
     66  C         13.4280  -16.3620   -9.5540 C.2   141  THR141      0.2287
     67  O         13.6080  -16.5580   -8.3440 O.2   141  THR141     -0.2866
     68  CB        15.2590  -15.7730  -11.1280 C.3   141  THR141      0.1770
     69  OG1       16.2480  -16.2720  -12.0370 O.3   141  THR141     -0.2211
     70  CG2       15.9410  -15.0470   -9.9750 C.3   141  THR141      0.0375
     71  N         11.8150  -19.0810   -7.2660 N.3   144  LEU144     -0.1231
     72  CA        12.6660  -19.5110   -6.1550 C.3   144  LEU144      0.1693
     73  C         12.7480  -18.3890   -5.1150 C.2   144  LEU144      0.2592
     74  O         12.7180  -18.6330   -3.9060 O.2   144  LEU144     -0.2718
     75  CB        14.0820  -19.8400   -6.6460 C.3   144  LEU144      0.0284
     76  CG        14.8730  -20.9640   -5.9510 C.3   144  LEU144      0.0019
     77  CD1       16.3540  -20.7480   -6.2170 C.3   144  LEU144      0.0001
     78  CD2       14.6300  -20.9910   -4.4690 C.3   144  LEU144      0.0001
     79  N         12.8570  -17.1590   -5.6040 N.am  145  PHE145     -0.1976
     80  CA        12.9430  -15.9860   -4.7460 C.3   145  PHE145      0.1639
     81  C         11.7020  -15.8980   -3.8720 C.2   145  PHE145      0.2290
     82  O         11.8090  -15.8100   -2.6550 O.2   145  PHE145     -0.2864
     83  CB        13.0760  -14.7360   -5.6180 C.3   145  PHE145      0.0560
     84  CG        13.4070  -13.4870   -4.8590 C.ar  145  PHE145     -0.0200
     85  CD1       14.4140  -12.6490   -5.3090 C.ar  145  PHE145     -0.0042
     86  CD2       12.6840  -13.1130   -3.7310 C.ar  145  PHE145     -0.0042
     87  CE1       14.6930  -11.4570   -4.6500 C.ar  145  PHE145     -0.0003
     88  CE2       12.9590  -11.9260   -3.0710 C.ar  145  PHE145     -0.0003
     89  CZ        13.9640  -11.0980   -3.5320 C.ar  145  PHE145     -0.0000
     90  N         11.7580  -18.6970   -1.3940 N.3   148  ILE148     -0.1231
     91  CA        12.6660  -18.5860   -0.2540 C.3   148  ILE148      0.1692
     92  C         11.9240  -17.8820    0.8770 C.2   148  ILE148      0.2591
     93  O         11.9650  -18.3110    2.0330 O.2   148  ILE148     -0.2718
     94  CB        13.9300  -17.7570   -0.5810 C.3   148  ILE148      0.0266
     95  CG1       14.7020  -18.3850   -1.7510 C.3   148  ILE148      0.0019
     96  CG2       14.8200  -17.6780    0.6490 C.3   148  ILE148      0.0020
     97  CD1       15.2860  -19.7490   -1.4580 C.3   148  ILE148      0.0001
     98  N         11.2370  -16.8000    0.5200 N.am  149  ALA149     -0.1980
     99  CA        10.4660  -16.0030    1.4670 C.3   149  ALA149      0.1597
    100  C          9.3880  -16.8430    2.1420 C.2   149  ALA149      0.2287
    101  O          9.2580  -16.8410    3.3670 O.2   149  ALA149     -0.2864
    102  CB         9.8330  -14.8220    0.7450 C.3   149  ALA149      0.0319
    103  N         10.6630  -18.8970    4.7470 N.3   152  PHE152     -0.1241
    104  CA        10.8780  -18.1640    5.9800 C.3   152  PHE152      0.1605
    105  C          9.5500  -18.0310    6.7090 C.2   152  PHE152      0.2264
    106  O          9.4900  -18.1690    7.9250 O.2   152  PHE152     -0.2867
    107  CB        11.4480  -16.7640    5.6930 C.3   152  PHE152      0.0534
    108  CG        12.9500  -16.6880    5.7770 C.ar  152  PHE152     -0.0203
    109  CD1       13.7310  -16.7270    4.6270 C.ar  152  PHE152     -0.0042
    110  CD2       13.5780  -16.5760    7.0140 C.ar  152  PHE152     -0.0042
    111  CE1       15.1170  -16.6540    4.7050 C.ar  152  PHE152     -0.0003
    112  CE2       14.9600  -16.5050    7.1140 C.ar  152  PHE152     -0.0003
    113  CZ        15.7360  -16.5430    5.9580 C.ar  152  PHE152     -0.0000
    114  N          9.0410  -19.4800   10.7100 N.3   156  TYR156     -0.1241
    115  CA         8.6420  -18.7290   11.8860 C.3   156  TYR156      0.1605
    116  C          7.2350  -19.0660   12.3350 C.2   156  TYR156      0.2264
    117  O          6.8670  -18.8390   13.4860 O.2   156  TYR156     -0.2867
    118  CB         8.7940  -17.2380   11.6110 C.3   156  TYR156      0.0534
    119  CG        10.2440  -16.8280   11.5350 C.ar  156  TYR156     -0.0201
    120  CD1       11.0810  -16.9570   12.6510 C.ar  156  TYR156     -0.0009
    121  CD2       10.7950  -16.3360   10.3560 C.ar  156  TYR156     -0.0009
    122  CE1       12.4290  -16.6070   12.5870 C.ar  156  TYR156      0.0417
    123  CE2       12.1500  -15.9830   10.2810 C.ar  156  TYR156      0.0417
    124  CZ        12.9570  -16.1240   11.3960 C.ar  156  TYR156      0.1957
    125  OH        14.2980  -15.8120   11.3170 O.3   156  TYR156     -0.2866
    126  N          8.2550  -20.0730   16.1170 N.3   160  SER160     -0.1217
    127  CA         7.9110  -18.9300   16.9670 C.3   160  SER160      0.1889
    128  C          6.4370  -18.9300   17.3540 C.2   160  SER160      0.2288
    129  O          6.1040  -18.8970   18.5310 O.2   160  SER160     -0.2866
    130  CB         8.2470  -17.6170   16.2590 C.3   160  SER160      0.2089
    131  OG         9.6400  -17.5260   16.0040 O.3   160  SER160     -0.2183
@<TRIPOS>BOND
     1    54    53    1
     2    50    53    1
     3    50    49    1
     4    50    51    1
     5    55    53    1
     6    51    52    2
     7    56    57    1
     8    60    57    1
     9    60    61    1
    10    63    61    1
    11    57    58    1
    12    61    62    1
    13    58    59    2
    14    69    68    1
    15    64    65    1
    16    68    65    1
    17    68    70    1
    18    65    66    1
    19    66    67    2
    20    71    72    1
    21    75    72    1
    22    75    76    1
    23    77    76    1
    24    72    73    1
    25    76    78    1
    26    83    84    1
    27    83    80    1
    28    79    73   am
    29    79    80    1
    30    85    84   ar
    31    85    87   ar
    32    73    74    2
    33    84    86   ar
    34    80    81    1
    35    87    89   ar
    36    81    82    2
    37    86    88   ar
    38    89    88   ar
    39    44    43    2
    40    95    97    1
    41    95    94    1
    42    90    91    1
    43    43    42    1
    44    47    46    1
    45    94    91    1
    46    94    96    1
    47    42    45    1
    48    42    41    1
    49    91    92    1
    50    46    45    1
    51    46    48    1
    52    98    92   am
    53    98    99    1
    54   102    99    1
    55    92    93    2
    56    99   100    1
    57   100   101    2
    58    37    36    2
    59    33    32    2
    60    36    35    1
    61    35    34    1
    62    35    38    1
    63    39    38    1
    64    32    34   am
    65    32    31    1
    66   109   111   ar
    67   109   108   ar
    68   111   113   ar
    69   103   104    1
    70    38    40    1
    71    31    30    1
    72   107   108    1
    73   107   104    1
    74   108   110   ar
    75   113   112   ar
    76   104   105    1
    77   105   106    2
    78   110   112   ar
    79    26    25    2
    80    25    24    1
    81    24    23    1
    82    24    27    1
    83    29    27    1
    84   123   121   ar
    85   123   124   ar
    86   121   119   ar
    87   114   115    1
    88    27    28    1
    89   125   124    1
    90   124   122   ar
    91   119   118    1
    92   119   120   ar
    93   118   115    1
    94   115   116    1
    95   116   117    2
    96   122   120   ar
    97    19    18    2
    98    18    17    1
    99    12    11    2
   100    17    16    1
   101    17    20    1
   102    11    16   am
   103    11    10    1
   104    22    20    1
   105    14    13    1
   106    20    21    1
   107    10    13    1
   108    10     9    1
   109   131   130    1
   110   126   127    1
   111   130   127    1
   112    13    15    1
   113   127   128    1
   114   128   129    2
   115     4     3    2
   116     8     6   ar
   117     3     2    1
   118     6     7   ar
   119     6     5    1
   120     1     2    1
   121     2     5    1
