@<TRIPOS>MOLECULE
tmp/2z55A01.pdb
 186 184 0 0 0
SMALL
GASTEIGER

@<TRIPOS>ATOM
      1  N         -2.6190  -11.6300   -6.9810 N.3    88  TYR88      -0.1241
      2  CA        -1.5990  -11.0440   -6.1250 C.3    88  TYR88       0.1605
      3  C         -2.1140   -9.8270   -5.3790 C.2    88  TYR88       0.2264
      4  O         -1.7670   -9.6180   -4.2160 O.2    88  TYR88      -0.2867
      5  CB        -0.3570  -10.7060   -6.9470 C.3    88  TYR88       0.0534
      6  CG         0.1120  -11.8810   -7.7750 C.ar   88  TYR88      -0.0201
      7  CD1       -0.1930  -11.9660   -9.1330 C.ar   88  TYR88      -0.0009
      8  CD2        0.7960  -12.9400   -7.1900 C.ar   88  TYR88      -0.0009
      9  CE1        0.1690  -13.0770   -9.8860 C.ar   88  TYR88       0.0417
     10  CE2        1.1630  -14.0600   -7.9360 C.ar   88  TYR88       0.0417
     11  CZ         0.8450  -14.1210   -9.2840 C.ar   88  TYR88       0.1957
     12  OH         1.1790  -15.2310  -10.0280 O.3    88  TYR88      -0.2866
     13  N         -3.8970  -11.5540   -2.6440 N.3    91  TRP91      -0.1241
     14  CA        -2.9590  -12.0900   -1.6670 C.3    91  TRP91       0.1605
     15  C         -2.1540  -11.0700   -0.8810 C.2    91  TRP91       0.2264
     16  O         -1.7660  -11.3350    0.2530 O.2    91  TRP91      -0.2867
     17  CB        -2.0270  -13.0890   -2.3560 C.3    91  TRP91       0.0550
     18  CG        -2.7800  -14.1740   -3.0810 C.ar   91  TRP91       0.0003
     19  CD1       -4.0900  -14.5190   -2.9010 C.ar   91  TRP91       0.0946
     20  CD2       -2.2730  -15.0450   -4.1060 C.ar   91  TRP91       0.0152
     21  NE1       -4.4330  -15.5450   -3.7500 N.ar   91  TRP91      -0.2442
     22  CE2       -3.3390  -15.8890   -4.5000 C.ar   91  TRP91       0.0810
     23  CE3       -1.0250  -15.1930   -4.7320 C.ar   91  TRP91       0.0012
     24  CZ2       -3.1950  -16.8720   -5.4920 C.ar   91  TRP91       0.0191
     25  CZ3       -0.8800  -16.1670   -5.7190 C.ar   91  TRP91       0.0001
     26  CH2       -1.9650  -16.9930   -6.0870 C.ar   91  TRP91       0.0015
     27  N         -4.7950  -10.4010    1.8680 N.3    94  THR94      -0.1203
     28  CA        -5.4140  -11.5790    2.4480 C.3    94  THR94       0.1994
     29  C         -4.4630  -12.4500    3.2630 C.2    94  THR94       0.2618
     30  O         -4.7280  -12.7460    4.4300 O.2    94  THR94      -0.2717
     31  CB        -6.0920  -12.4160    1.3440 C.3    94  THR94       0.1784
     32  OG1       -5.2120  -12.5470    0.2200 O.3    94  THR94      -0.2211
     33  CG2       -7.3790  -11.7340    0.8870 C.3    94  THR94       0.0376
     34  N         -3.3460  -12.8510    2.6710 N.am   95  THR95      -0.1952
     35  CA        -2.3960  -13.6850    3.4030 C.3    95  THR95       0.1897
     36  C         -1.8920  -13.0180    4.6860 C.2    95  THR95       0.2313
     37  O         -1.7530  -13.6800    5.7100 O.2    95  THR95      -0.2863
     38  CB        -1.1990  -14.0950    2.5110 C.3    95  THR95       0.1794
     39  OG1       -0.6280  -12.9350    1.8990 O.3    95  THR95      -0.2208
     40  CG2       -1.6560  -15.0470    1.4270 C.3    95  THR95       0.0378
     41  N         -4.5230  -13.3090    7.2540 N.3    98  LEU98      -0.1245
     42  CA        -4.6310  -14.6880    7.6960 C.3    98  LEU98       0.1561
     43  C         -3.5580  -14.8990    8.7490 C.2    98  LEU98       0.2260
     44  O         -3.8300  -15.4520    9.8120 O.2    98  LEU98      -0.2867
     45  CB        -4.4410  -15.6700    6.5290 C.3    98  LEU98       0.0270
     46  CG        -5.6680  -16.1800    5.7430 C.3    98  LEU98       0.0019
     47  CD1       -6.8750  -16.2720    6.6780 C.3    98  LEU98       0.0001
     48  CD2       -5.9890  -15.2780    4.5640 C.3    98  LEU98       0.0001
     49  N          7.0110  -12.0050   -0.6470 N.3   123  MET123     -0.1230
     50  CA         6.6750  -13.2350   -1.3620 C.3   123  MET123      0.1702
     51  C          5.6310  -12.9770   -2.4570 C.2   123  MET123      0.2592
     52  O          5.8030  -13.3820   -3.6080 O.2   123  MET123     -0.2718
     53  CB         6.1270  -14.2530   -0.3590 C.3   123  MET123      0.0401
     54  CG         5.5530  -15.5300   -0.9590 C.3   123  MET123      0.0596
     55  SD         4.8590  -16.5840    0.3510 S.3   123  MET123     -0.1393
     56  CE         3.1950  -15.8670    0.4900 C.3   123  MET123      0.0692
     57  N          4.5490  -12.2840   -2.1090 N.am  124  ILE124     -0.1980
     58  CA         3.5200  -12.0300   -3.1070 C.3   124  ILE124      0.1595
     59  C          3.9880  -11.1550   -4.2660 C.2   124  ILE124      0.2287
     60  O          3.7900  -11.5070   -5.4320 O.2   124  ILE124     -0.2864
     61  CB         2.2630  -11.3930   -2.4860 C.3   124  ILE124      0.0276
     62  CG1        1.7030  -12.3060   -1.3830 C.3   124  ILE124      0.0022
     63  CG2        1.2280  -11.1410   -3.5790 C.3   124  ILE124      0.0022
     64  CD1        1.3170  -13.7310   -1.8480 C.3   124  ILE124      0.0001
     65  N          6.2660  -12.8320   -6.4680 N.3   127  GLY127     -0.1225
     66  CA         5.5090  -13.8360   -7.1950 C.3   127  GLY127      0.1811
     67  C          4.8080  -13.1950   -8.3840 C.2   127  GLY127      0.2280
     68  O          4.6690  -13.8040   -9.4480 O.2   127  GLY127     -0.2866
     69  N         10.4150  -17.2340   -8.9650 N.3   143  TRP143     -0.1241
     70  CA         9.7310  -18.3250   -8.2770 C.3   143  TRP143      0.1605
     71  C         10.5330  -18.7680   -7.0660 C.2   143  TRP143      0.2264
     72  O          9.9990  -18.8360   -5.9620 O.2   143  TRP143     -0.2867
     73  CB         9.5310  -19.5340   -9.1940 C.3   143  TRP143      0.0550
     74  CG         8.7170  -20.6500   -8.5410 C.ar  143  TRP143      0.0003
     75  CD1        7.3580  -20.7670   -8.5210 C.ar  143  TRP143      0.0946
     76  CD2        9.2240  -21.7630   -7.7920 C.ar  143  TRP143      0.0152
     77  NE1        6.9850  -21.8840   -7.8110 N.ar  143  TRP143     -0.2442
     78  CE2        8.1110  -22.5150   -7.3520 C.ar  143  TRP143      0.0810
     79  CE3       10.5110  -22.2000   -7.4490 C.ar  143  TRP143      0.0012
     80  CZ2        8.2410  -23.6840   -6.5850 C.ar  143  TRP143      0.0191
     81  CZ3       10.6450  -23.3570   -6.6860 C.ar  143  TRP143      0.0001
     82  CH2        9.5150  -24.0870   -6.2630 C.ar  143  TRP143      0.0015
     83  N         10.5230  -15.9170   -4.4980 N.3   146  SER146     -0.1202
     84  CA         9.2700  -15.8590   -3.7500 C.3   146  SER146      0.2020
     85  C          9.1910  -17.0550   -2.8240 C.2   146  SER146      0.2619
     86  O          8.6760  -16.9590   -1.7030 O.2   146  SER146     -0.2717
     87  CB         8.0640  -15.8920   -4.6920 C.3   146  SER146      0.2103
     88  OG         6.8540  -16.0540   -3.9650 O.3   146  SER146     -0.2182
     89  N          9.7120  -18.1880   -3.2900 N.am  147  THR147     -0.1952
     90  CA         9.6770  -19.4010   -2.4820 C.3   147  THR147      0.1897
     91  C         10.5970  -19.3360   -1.2610 C.2   147  THR147      0.2313
     92  O         10.2530  -19.8560   -0.1990 O.2   147  THR147     -0.2863
     93  CB        10.0100  -20.6560   -3.3280 C.3   147  THR147      0.1794
     94  OG1        9.0810  -20.7660   -4.4230 O.3   147  THR147     -0.2208
     95  CG2        9.9020  -21.9100   -2.4680 C.3   147  THR147      0.0378
     96  N          8.6040  -17.5530    1.3360 N.3   150  PHE150     -0.1241
     97  CA         7.5530  -18.4120    1.8570 C.3   150  PHE150      0.1605
     98  C          8.1640  -19.3910    2.8640 C.2   150  PHE150      0.2264
     99  O          7.5640  -19.6970    3.8980 O.2   150  PHE150     -0.2867
    100  CB         6.9060  -19.1800    0.7140 C.3   150  PHE150      0.0534
    101  CG         6.0180  -20.3030    1.1650 C.ar  150  PHE150     -0.0203
    102  CD1        4.7620  -20.0430    1.7080 C.ar  150  PHE150     -0.0042
    103  CD2        6.4370  -21.6260    1.0340 C.ar  150  PHE150     -0.0042
    104  CE1        3.9290  -21.0810    2.1100 C.ar  150  PHE150     -0.0003
    105  CE2        5.6240  -22.6690    1.4270 C.ar  150  PHE150     -0.0003
    106  CZ         4.3560  -22.3980    1.9700 C.ar  150  PHE150     -0.0000
    107  N         -1.3140  -23.6460    1.8000 N.3   187  TRP187     -0.1241
    108  CA        -0.5150  -22.5790    1.2160 C.3   187  TRP187      0.1605
    109  C          0.5390  -23.1500    0.2780 C.2   187  TRP187      0.2264
    110  O          0.7240  -22.6580   -0.8310 O.2   187  TRP187     -0.2867
    111  CB         0.1120  -21.7150    2.3310 C.3   187  TRP187      0.0550
    112  CG        -0.9110  -20.7950    3.0070 C.ar  187  TRP187      0.0003
    113  CD1       -2.2310  -21.0800    3.2560 C.ar  187  TRP187      0.0946
    114  CD2       -0.6950  -19.4630    3.5050 C.ar  187  TRP187      0.0152
    115  NE1       -2.8390  -20.0160    3.8750 N.ar  187  TRP187     -0.2442
    116  CE2       -1.9220  -19.0120    4.0450 C.ar  187  TRP187      0.0810
    117  CE3        0.4170  -18.6090    3.5560 C.ar  187  TRP187      0.0012
    118  CZ2       -2.0740  -17.7380    4.6190 C.ar  187  TRP187      0.0191
    119  CZ3        0.2650  -17.3390    4.1300 C.ar  187  TRP187      0.0001
    120  CH2       -0.9690  -16.9200    4.6550 C.ar  187  TRP187      0.0015
    121  N          0.1090  -23.7330   -3.4770 N.3   190  TYR190     -0.1228
    122  CA         0.2130  -22.5640   -4.3510 C.3   190  TYR190      0.1721
    123  C          1.4670  -22.4770   -5.2350 C.2   190  TYR190      0.2437
    124  O          1.3540  -22.4060   -6.4610 O.2   190  TYR190     -0.2733
    125  CB         0.0490  -21.2850   -3.5260 C.3   190  TYR190      0.0547
    126  CG        -1.3770  -21.0160   -3.0910 C.ar  190  TYR190     -0.0200
    127  CD1       -1.9220  -21.6360   -1.9630 C.ar  190  TYR190     -0.0009
    128  CD2       -2.1930  -20.1570   -3.8210 C.ar  190  TYR190     -0.0009
    129  CE1       -3.2540  -21.3990   -1.5810 C.ar  190  TYR190      0.0417
    130  CE2       -3.5140  -19.9150   -3.4500 C.ar  190  TYR190      0.0417
    131  CZ        -4.0360  -20.5340   -2.3370 C.ar  190  TYR190      0.1957
    132  OH        -5.3390  -20.2890   -1.9850 O.3   190  TYR190     -0.2866
    133  N          2.6720  -22.4660   -4.6390 N.am  191  PRO191     -0.2729
    134  CA         3.8760  -22.3950   -5.4880 C.3   191  PRO191      0.1401
    135  C          3.9850  -23.5530   -6.4960 C.2   191  PRO191      0.2269
    136  O          4.4350  -23.3510   -7.6380 O.2   191  PRO191     -0.2865
    137  CB         5.0270  -22.3740   -4.4800 C.3   191  PRO191      0.0296
    138  CG         4.4000  -22.9390   -3.2000 C.3   191  PRO191      0.0237
    139  CD         3.0190  -22.3700   -3.2110 C.3   191  PRO191      0.0939
    140  N          1.7410  -23.1380   -9.3940 N.3   194  TRP194     -0.1241
    141  CA         2.2920  -22.0570  -10.2150 C.3   194  TRP194      0.1605
    142  C          3.3780  -22.5620  -11.1790 C.2   194  TRP194      0.2264
    143  O          3.2950  -22.3630  -12.3930 O.2   194  TRP194     -0.2867
    144  CB         2.8870  -20.9890   -9.2980 C.3   194  TRP194      0.0550
    145  CG         3.1240  -19.6560   -9.9180 C.ar  194  TRP194      0.0003
    146  CD1        2.3130  -18.5590   -9.8280 C.ar  194  TRP194      0.0946
    147  CD2        4.2970  -19.2300  -10.6150 C.ar  194  TRP194      0.0152
    148  NE1        2.9160  -17.4750  -10.4110 N.ar  194  TRP194     -0.2442
    149  CE2        4.1360  -17.8560  -10.9060 C.ar  194  TRP194      0.0810
    150  CE3        5.4730  -19.8740  -11.0240 C.ar  194  TRP194      0.0012
    151  CZ2        5.1100  -17.1100  -11.5790 C.ar  194  TRP194      0.0191
    152  CZ3        6.4430  -19.1300  -11.6990 C.ar  194  TRP194      0.0001
    153  CH2        6.2510  -17.7600  -11.9690 C.ar  194  TRP194      0.0015
    154  N         -7.0530  -23.2810   -7.9170 N.3   213  PHE213     -0.1241
    155  CA        -6.9420  -22.0620   -7.1330 C.3   213  PHE213      0.1605
    156  C         -8.2580  -21.7300   -6.4310 C.2   213  PHE213      0.2264
    157  O         -8.2470  -21.2780   -5.2850 O.2   213  PHE213     -0.2867
    158  CB        -6.5000  -20.8870   -8.0150 C.3   213  PHE213      0.0534
    159  CG        -5.0110  -20.8200   -8.2490 C.ar  213  PHE213     -0.0203
    160  CD1       -4.1230  -20.9140   -7.1830 C.ar  213  PHE213     -0.0042
    161  CD2       -4.5020  -20.6200   -9.5310 C.ar  213  PHE213     -0.0042
    162  CE1       -2.7490  -20.8070   -7.3860 C.ar  213  PHE213     -0.0003
    163  CE2       -3.1240  -20.5090   -9.7450 C.ar  213  PHE213     -0.0003
    164  CZ        -2.2480  -20.6040   -8.6640 C.ar  213  PHE213     -0.0000
    165  N         -8.2530  -21.4990   -2.7150 N.3   217  ASP217     -0.1239
    166  CA        -8.6310  -20.2180   -2.1290 C.3   217  ASP217      0.1674
    167  C         -9.8340  -20.2940   -1.2140 C.2   217  ASP217      0.2266
    168  O         -9.7690  -19.8160   -0.0850 O.2   217  ASP217     -0.2867
    169  CB        -8.8820  -19.1630   -3.2080 C.3   217  ASP217      0.1410
    170  CG        -7.5970  -18.6590   -3.8250 C.2   217  ASP217      0.3668
    171  OD1       -6.5990  -18.5380   -3.0870 O.co2 217  ASP217     -0.2456
    172  OD2       -7.5720  -18.3800   -5.0350 O.co2 217  ASP217     -0.2456
    173  N         -8.8970  -22.0800    1.8900 N.3   220  ALA220     -0.1231
    174  CA        -7.9690  -21.3180    2.7200 C.3   220  ALA220      0.1694
    175  C         -8.6620  -20.0960    3.3440 C.2   220  ALA220      0.2591
    176  O         -8.3060  -19.6700    4.4420 O.2   220  ALA220     -0.2718
    177  CB        -6.7570  -20.8890    1.9020 C.3   220  ALA220      0.0304
    178  N         -9.6540  -19.5450    2.6460 N.am  221  LYS221     -0.1980
    179  CA       -10.4040  -18.3870    3.1420 C.3   221  LYS221      0.1596
    180  C        -11.5540  -18.8180    4.0200 C.2   221  LYS221      0.2287
    181  O        -11.4660  -18.8110    5.2520 O.2   221  LYS221     -0.2864
    182  CB       -11.0010  -17.5750    1.9940 C.3   221  LYS221      0.0298
    183  CG       -10.1980  -16.3580    1.5640 C.3   221  LYS221      0.0038
    184  CD        -8.9110  -16.7580    0.8880 C.3   221  LYS221      0.0206
    185  CE        -8.2060  -15.5450    0.3110 C.3   221  LYS221      0.1093
    186  NZ        -6.9660  -15.8920   -0.3750 N.3   221  LYS221     -0.1314
@<TRIPOS>BOND
     1   143   142    2
     2   153   152   ar
     3   153   151   ar
     4   152   150   ar
     5   151   149   ar
     6   142   141    1
     7   150   147   ar
     8   149   147   ar
     9   149   148   ar
    10   147   145   ar
    11   148   146   ar
    12   141   140    1
    13   141   144    1
    14    12    11    1
    15   145   146   ar
    16   145   144    1
    17     9    11   ar
    18     9     7   ar
    19   163   161   ar
    20   163   164   ar
    21   161   159   ar
    22    68    67    2
    23    11    10   ar
    24    73    74    1
    25    73    70    1
    26     7     6   ar
    27    69    70    1
    28   164   162   ar
    29    74    75   ar
    30    74    76   ar
    31    75    77   ar
    32    67    66    1
    33    70    71    1
    34   159   158    1
    35   159   160   ar
    36   158   155    1
    37    10     8   ar
    38   154   155    1
    39    77    78   ar
    40    76    79   ar
    41    76    78   ar
    42     6     8   ar
    43     6     5    1
    44   136   135    2
    45    79    81   ar
    46   162   160   ar
    47    78    80   ar
    48    66    65    1
    49   155   156    1
    50    71    72    2
    51     1     2    1
    52     5     2    1
    53    81    82   ar
    54    80    82   ar
    55   135   134    1
    56   124   123    2
    57   156   157    2
    58     2     3    1
    59    26    25   ar
    60    26    24   ar
    61    25    23   ar
    62    24    22   ar
    63   134   133    1
    64   134   137    1
    65    60    59    2
    66     3     4    2
    67   123   133   am
    68   123   122    1
    69   172   170   ar
    70    23    20   ar
    71    87    88    1
    72    87    84    1
    73   133   139    1
    74    22    20   ar
    75    22    21   ar
    76    83    84    1
    77   137   138    1
    78    94    93    1
    79   122   125    1
    80   122   121    1
    81    59    58    1
    82    20    18   ar
    83   170   169    1
    84   170   171   ar
    85   128   130   ar
    86   128   126   ar
    87    21    19   ar
    88    84    85    1
    89    52    51    2
    90    63    61    1
    91   125   126    1
    92   130   131   ar
    93    93    90    1
    94    93    95    1
    95    89    85   am
    96    89    90    1
    97   139   138    1
    98   169   166    1
    99    58    61    1
   100    58    57    1
   101   126   127   ar
   102    18    19   ar
   103    18    17    1
   104    85    86    2
   105   165   166    1
   106    13    14    1
   107    61    62    1
   108    90    91    1
   109    51    57   am
   110    51    50    1
   111    17    14    1
   112   131   132    1
   113   131   129   ar
   114   166   167    1
   115   127   129   ar
   116    64    62    1
   117    14    15    1
   118    50    49    1
   119    50    53    1
   120    91    92    2
   121   167   168    2
   122    54    53    1
   123    54    55    1
   124    15    16    2
   125   110   109    2
   126   186   185    1
   127    32    31    1
   128   109   108    1
   129   185   184    1
   130    55    56    1
   131   100   101    1
   132   100    97    1
   133    33    31    1
   134   184   183    1
   135   103   101   ar
   136   103   105   ar
   137   101   102   ar
   138   108   107    1
   139   108   111    1
   140    96    97    1
   141    31    28    1
   142   105   106   ar
   143    40    38    1
   144   183   182    1
   145   102   104   ar
   146    97    98    1
   147    27    28    1
   148   173   174    1
   149    39    38    1
   150   177   174    1
   151   106   104   ar
   152   182   179    1
   153   111   112    1
   154    28    29    1
   155    38    35    1
   156   178   179    1
   157   178   175   am
   158    34    29   am
   159    34    35    1
   160   174   175    1
   161    98    99    2
   162   112   113   ar
   163   112   114   ar
   164   179   180    1
   165   113   115   ar
   166    29    30    2
   167   175   176    2
   168    35    36    1
   169   114   117   ar
   170   114   116   ar
   171   117   119   ar
   172   115   116   ar
   173   180   181    2
   174   116   118   ar
   175   119   120   ar
   176    48    46    1
   177   118   120   ar
   178    36    37    2
   179    46    45    1
   180    46    47    1
   181    45    42    1
   182    41    42    1
   183    42    43    1
   184    43    44    2
