@<TRIPOS>MOLECULE
tmp/2z55A03.pdb
 106 99 0 0 0
SMALL
GASTEIGER

@<TRIPOS>ATOM
      1  N        -12.9280   -9.6950    6.2830 N.3    52  LEU52      -0.1245
      2  CA       -12.3200   -8.9430    5.1880 C.3    52  LEU52       0.1561
      3  C        -11.6300   -9.8390    4.1710 C.2    52  LEU52       0.2260
      4  O        -11.5530   -9.4930    2.9870 O.2    52  LEU52      -0.2867
      5  CB       -11.3150   -7.9140    5.7310 C.3    52  LEU52       0.0270
      6  CG       -11.8430   -6.4740    5.7950 C.3    52  LEU52       0.0019
      7  CD1      -11.0460   -5.6630    6.7880 C.3    52  LEU52       0.0001
      8  CD2      -11.7840   -5.8430    4.4070 C.3    52  LEU52       0.0001
      9  N        -12.1200   -9.3240    0.4140 N.3    56  ILE56      -0.1245
     10  CA       -11.2390   -8.8140   -0.6330 C.3    56  ILE56       0.1561
     11  C        -11.0590   -9.8290   -1.7490 C.2    56  ILE56       0.2260
     12  O        -10.8430   -9.4590   -2.9200 O.2    56  ILE56      -0.2867
     13  CB        -9.8370   -8.3730   -0.0880 C.3    56  ILE56       0.0252
     14  CG1       -8.8240   -8.3710   -1.2260 C.3    56  ILE56       0.0019
     15  CG2       -9.3840   -9.2600    1.0500 C.3    56  ILE56       0.0019
     16  CD1       -7.4370   -7.9520   -0.8060 C.3    56  ILE56       0.0001
     17  N        -13.6440   -9.3300   -4.4730 N.3    59  ALA59      -0.1231
     18  CA       -13.3780   -8.2520   -5.4350 C.3    59  ALA59       0.1694
     19  C        -12.4200   -8.7510   -6.5110 C.2    59  ALA59       0.2591
     20  O        -12.6180   -8.5090   -7.6970 O.2    59  ALA59      -0.2718
     21  CB       -12.7800   -7.0670   -4.7300 C.3    59  ALA59       0.0304
     22  N        -11.3780   -9.4500   -6.0810 N.am   60  ALA60      -0.1980
     23  CA       -10.4100  -10.0120   -7.0090 C.3    60  ALA60       0.1597
     24  C        -11.0990  -11.0330   -7.9200 C.2    60  ALA60       0.2287
     25  O        -10.9070  -11.0150   -9.1370 O.2    60  ALA60      -0.2864
     26  CB        -9.2830  -10.6730   -6.2470 C.3    60  ALA60       0.0319
     27  N        -13.3560   -9.3210  -10.3320 N.3    63  ALA63      -0.1245
     28  CA       -12.4560   -8.6510  -11.2880 C.3    63  ALA63       0.1562
     29  C        -11.9820   -9.6050  -12.3750 C.2    63  ALA63       0.2260
     30  O        -12.0200   -9.2850  -13.5730 O.2    63  ALA63      -0.2867
     31  CB       -11.2340   -8.0840  -10.5610 C.3    63  ALA63       0.0290
     32  N        -11.2740   -8.1460  -16.2620 N.3    68  ILE68      -0.1231
     33  CA       -10.4940   -6.9900  -15.8670 C.3    68  ILE68       0.1692
     34  C         -9.2610   -7.4300  -15.0690 C.2    68  ILE68       0.2593
     35  O         -8.2020   -6.8170  -15.1580 O.2    68  ILE68      -0.2718
     36  CB       -11.3460   -6.0550  -14.9980 C.3    68  ILE68       0.0266
     37  CG1      -12.8250   -6.2060  -15.3870 C.3    68  ILE68       0.0019
     38  CG2      -10.8940   -4.6060  -15.2030 C.3    68  ILE68       0.0020
     39  CD1      -13.8100   -5.4210  -14.5150 C.3    68  ILE68       0.0001
     40  N         -9.4190   -8.5080  -14.3030 N.am   69  GLY69      -0.1942
     41  CA        -8.3380   -9.0150  -13.4770 C.3    69  GLY69       0.2014
     42  C         -7.2890   -9.8460  -14.1840 C.2    69  GLY69       0.2639
     43  O         -6.3670  -10.3470  -13.5450 O.2    69  GLY69      -0.2714
     44  N         -7.4240   -9.9950  -15.5010 N.am   70  VAL70      -0.1963
     45  CA        -6.4760  -10.7740  -16.2810 C.3    70  VAL70       0.1727
     46  C         -5.7940   -9.8870  -17.3110 C.2    70  VAL70       0.2616
     47  O         -6.3760   -8.9160  -17.7930 O.2    70  VAL70      -0.2715
     48  CB        -7.1730  -11.9420  -17.0040 C.3    70  VAL70       0.0290
     49  CG1       -8.0320  -11.4120  -18.1500 C.3    70  VAL70       0.0023
     50  CG2       -6.1350  -12.9430  -17.5030 C.3    70  VAL70       0.0023
     51  N         -4.5570  -10.2330  -17.6450 N.am   71  THR71      -0.1951
     52  CA        -3.7740   -9.4660  -18.6010 C.3    71  THR71       0.1897
     53  C         -2.9520  -10.4070  -19.4920 C.2    71  THR71       0.2313
     54  O         -2.5460  -11.4890  -19.0610 O.2    71  THR71      -0.2863
     55  CB        -2.8300   -8.4890  -17.8480 C.3    71  THR71       0.1794
     56  OG1       -2.0860   -7.7050  -18.7890 O.3    71  THR71      -0.2208
     57  CG2       -1.8670   -9.2650  -16.9540 C.3    71  THR71       0.0378
     58  N         -3.2370  -11.6740  -12.8870 N.3    85  TYR85      -0.1227
     59  CA        -2.4830  -10.8750  -11.9370 C.3    85  TYR85       0.1736
     60  C         -3.2320  -10.5140  -10.6570 C.2    85  TYR85       0.2595
     61  O         -2.6540  -10.5300   -9.5810 O.2    85  TYR85      -0.2718
     62  CB        -1.9990   -9.6020  -12.6440 C.3    85  TYR85       0.0548
     63  CG        -3.1040   -8.6360  -13.0170 C.ar   85  TYR85      -0.0200
     64  CD1       -3.5810   -7.7130  -12.0930 C.ar   85  TYR85      -0.0009
     65  CD2       -3.6840   -8.6570  -14.2860 C.ar   85  TYR85      -0.0009
     66  CE1       -4.5990   -6.8370  -12.4130 C.ar   85  TYR85       0.0417
     67  CE2       -4.7150   -7.7780  -14.6200 C.ar   85  TYR85       0.0417
     68  CZ        -5.1630   -6.8710  -13.6700 C.ar   85  TYR85       0.1957
     69  OH        -6.1790   -5.9950  -13.9570 O.3    85  TYR85      -0.2866
     70  N         -4.5200  -10.2010  -10.7820 N.am   86  ALA86      -0.1980
     71  CA        -5.3620   -9.8120   -9.6530 C.3    86  ALA86       0.1597
     72  C         -5.2030  -10.6790   -8.4060 C.2    86  ALA86       0.2287
     73  O         -5.4260  -10.2130   -7.2810 O.2    86  ALA86      -0.2864
     74  CB        -6.8220   -9.7970  -10.0890 C.3    86  ALA86       0.0319
     75  N         -2.9450   -9.0200   -6.0350 N.3    89  ALA89      -0.1231
     76  CA        -3.5170   -7.8670   -5.3530 C.3    89  ALA89       0.1694
     77  C         -4.2870   -8.4730   -4.1910 C.2    89  ALA89       0.2592
     78  O         -4.2580   -7.9700   -3.0700 O.2    89  ALA89      -0.2718
     79  CB        -4.4730   -7.1140   -6.2770 C.3    89  ALA89       0.0304
     80  N         -4.9720   -9.5750   -4.4840 N.am   90  ASP90      -0.1974
     81  CA        -5.7570  -10.3030   -3.4910 C.3    90  ASP90       0.1709
     82  C         -4.8640  -10.6990   -2.3280 C.2    90  ASP90       0.2293
     83  O         -5.0390  -10.2490   -1.1950 O.2    90  ASP90      -0.2864
     84  CB        -6.3100  -11.5850   -4.1220 C.3    90  ASP90       0.1436
     85  CG        -7.2640  -12.3400   -3.2130 C.2    90  ASP90       0.3671
     86  OD1       -6.9940  -12.5440   -2.0050 O.co2  90  ASP90      -0.2456
     87  OD2       -8.3070  -12.7560   -3.7430 O.co2  90  ASP90      -0.2456
     88  N         -3.1180   -8.6120    0.6630 N.3    93  PHE93      -0.1241
     89  CA        -3.8170   -8.2030    1.8740 C.3    93  PHE93       0.1605
     90  C         -4.4180   -9.3730    2.6180 C.2    93  PHE93       0.2264
     91  O         -4.5260   -9.3480    3.8440 O.2    93  PHE93      -0.2867
     92  CB        -4.9130   -7.2010    1.5150 C.3    93  PHE93       0.0534
     93  CG        -4.3970   -5.9840    0.8160 C.ar   93  PHE93      -0.0203
     94  CD1       -3.8060   -4.9580    1.5360 C.ar   93  PHE93      -0.0042
     95  CD2       -4.4510   -5.8900   -0.5790 C.ar   93  PHE93      -0.0042
     96  CE1       -3.2750   -3.8560    0.8830 C.ar   93  PHE93      -0.0003
     97  CE2       -3.9190   -4.7960   -1.2430 C.ar   93  PHE93      -0.0003
     98  CZ        -3.3300   -3.7750   -0.5110 C.ar   93  PHE93      -0.0000
     99  N         -3.4450  -10.8790    6.5940 N.3    97  LEU97      -0.1245
    100  CA        -4.5120  -10.9030    7.5740 C.3    97  LEU97       0.1561
    101  C         -4.6650  -12.3170    8.1270 C.2    97  LEU97       0.2260
    102  O         -4.8990  -12.5080    9.3280 O.2    97  LEU97      -0.2867
    103  CB        -5.8050  -10.4220    6.9320 C.3    97  LEU97       0.0270
    104  CG        -5.7210   -8.9630    6.4720 C.3    97  LEU97       0.0019
    105  CD1       -6.8980   -8.6270    5.5790 C.3    97  LEU97       0.0001
    106  CD2       -5.6790   -8.0550    7.6830 C.3    97  LEU97       0.0001
@<TRIPOS>BOND
     1    53    54    2
     2    53    52    1
     3    56    55    1
     4    52    55    1
     5    52    51    1
     6    49    48    1
     7    55    57    1
     8    47    46    2
     9    51    46   am
    10    50    48    1
    11    46    45    1
    12    48    45    1
    13    45    44    1
    14    32    33    1
    15    33    34    1
    16    33    36    1
    17    44    42   am
    18    37    36    1
    19    37    39    1
    20    38    36    1
    21    35    34    2
    22    34    40   am
    23    67    65   ar
    24    67    68   ar
    25    40    41    1
    26    65    63   ar
    27    42    43    2
    28    42    41    1
    29    69    68    1
    30    68    66   ar
    31    30    29    2
    32    63    62    1
    33    63    64   ar
    34    58    59    1
    35    62    59    1
    36    66    64   ar
    37    29    28    1
    38    59    60    1
    39    28    31    1
    40    28    27    1
    41    70    60   am
    42    70    71    1
    43    60    61    2
    44    74    71    1
    45    71    72    1
    46    25    24    2
    47    72    73    2
    48    24    23    1
    49    20    19    2
    50    23    26    1
    51    23    22    1
    52    19    22   am
    53    19    18    1
    54    79    76    1
    55    75    76    1
    56    18    21    1
    57    18    17    1
    58    76    77    1
    59    80    77   am
    60    80    81    1
    61    77    78    2
    62    84    81    1
    63    84    85    1
    64    87    85   ar
    65    81    82    1
    66    85    86   ar
    67    12    11    2
    68    82    83    2
    69    11    10    1
    70    97    95   ar
    71    97    98   ar
    72    14    16    1
    73    14    13    1
    74    10    13    1
    75    10     9    1
    76    95    93   ar
    77    98    96   ar
    78    13    15    1
    79    88    89    1
    80    93    92    1
    81    93    94   ar
    82    96    94   ar
    83    92    89    1
    84    89    90    1
    85    90    91    2
    86     4     3    2
    87     3     2    1
    88     8     6    1
    89     2     5    1
    90     2     1    1
    91   105   104    1
    92     5     6    1
    93     6     7    1
    94   104   103    1
    95   104   106    1
    96    99   100    1
    97   103   100    1
    98   100   101    1
    99   101   102    2
