@<TRIPOS>MOLECULE
tmp/2z5mA00.pdb
 224 208 0 0 0
SMALL
GASTEIGER

@<TRIPOS>ATOM
      1  N         19.9490  -27.0570  -21.6260 N.3   274  GLU274     -0.1245
      2  CA        20.9380  -28.0430  -21.1940 C.3   274  GLU274      0.1567
      3  C         20.3410  -29.0520  -20.2210 C.2   274  GLU274      0.2260
      4  O         20.7460  -30.2150  -20.1690 O.2   274  GLU274     -0.2867
      5  CB        22.1000  -27.3280  -20.5120 C.3   274  GLU274      0.0388
      6  CG        22.9310  -26.4370  -21.4290 C.3   274  GLU274      0.1160
      7  CD        24.0050  -27.2000  -22.1780 C.2   274  GLU274      0.3649
      8  OE1       24.1180  -28.4380  -21.9890 O.co2 274  GLU274     -0.2457
      9  OE2       24.7420  -26.5530  -22.9550 O.co2 274  GLU274     -0.2457
     10  N         18.7090  -32.0250  -21.9910 N.3   277  LEU277     -0.1245
     11  CA        19.7220  -32.9360  -22.5080 C.3   277  LEU277      0.1561
     12  C         20.2510  -33.8260  -21.3850 C.2   277  LEU277      0.2260
     13  O         20.3660  -35.0470  -21.5280 O.2   277  LEU277     -0.2867
     14  CB        20.8700  -32.1390  -23.1250 C.3   277  LEU277      0.0270
     15  CG        21.6540  -32.6430  -24.3410 C.3   277  LEU277      0.0019
     16  CD1       22.8700  -31.7420  -24.5140 C.3   277  LEU277      0.0001
     17  CD2       22.0940  -34.1100  -24.2640 C.3   277  LEU277      0.0001
     18  N         19.4650  -38.1410  -20.2480 N.3   281  GLU281     -0.1245
     19  CA        20.5220  -39.1370  -20.1740 C.3   281  GLU281      0.1567
     20  C         20.5590  -39.8440  -18.8180 C.2   281  GLU281      0.2260
     21  O         21.4680  -40.6220  -18.5440 O.2   281  GLU281     -0.2867
     22  CB        21.8730  -38.5000  -20.5220 C.3   281  GLU281      0.0388
     23  CG        22.0400  -38.1990  -22.0140 C.3   281  GLU281      0.1160
     24  CD        23.1710  -37.2230  -22.3200 C.2   281  GLU281      0.3649
     25  OE1       23.7920  -37.3500  -23.4050 O.co2 281  GLU281     -0.2457
     26  OE2       23.4380  -36.3240  -21.4890 O.co2 281  GLU281     -0.2457
     27  N         16.5730  -21.8730  -36.7690 N.3   306  TYR306     -0.1241
     28  CA        17.6710  -20.9200  -36.8590 C.3   306  TYR306      0.1605
     29  C         17.2650  -19.5870  -36.2590 C.2   306  TYR306      0.2264
     30  O         16.1470  -19.1270  -36.4660 O.2   306  TYR306     -0.2867
     31  CB        18.0650  -20.6770  -38.3060 C.3   306  TYR306      0.0534
     32  CG        18.8900  -21.7720  -38.9170 C.ar  306  TYR306     -0.0201
     33  CD1       20.1190  -22.1500  -38.3650 C.ar  306  TYR306     -0.0009
     34  CD2       18.4600  -22.4170  -40.0660 C.ar  306  TYR306     -0.0009
     35  CE1       20.8860  -23.1620  -38.9420 C.ar  306  TYR306      0.0417
     36  CE2       19.2130  -23.4230  -40.6460 C.ar  306  TYR306      0.0417
     37  CZ        20.4210  -23.7930  -40.0860 C.ar  306  TYR306      0.1957
     38  OH        21.1450  -24.7990  -40.6870 O.3   306  TYR306     -0.2866
     39  N         28.0020  -24.4750  -30.3070 N.3   323  TRP323     -0.1241
     40  CA        26.9000  -24.8990  -29.4400 C.3   323  TRP323      0.1605
     41  C         25.9590  -23.7360  -29.0950 C.2   323  TRP323      0.2264
     42  O         26.3920  -22.7170  -28.5540 O.2   323  TRP323     -0.2867
     43  CB        27.4760  -25.4970  -28.1610 C.3   323  TRP323      0.0550
     44  CG        26.4770  -26.1100  -27.2560 C.ar  323  TRP323      0.0003
     45  CD1       25.9700  -25.5720  -26.1080 C.ar  323  TRP323      0.0946
     46  CD2       25.8660  -27.3930  -27.4050 C.ar  323  TRP323      0.0152
     47  NE1       25.0760  -26.4430  -25.5340 N.ar  323  TRP323     -0.2442
     48  CE2       24.9940  -27.5690  -26.3120 C.ar  323  TRP323      0.0810
     49  CE3       25.9650  -28.4100  -28.3620 C.ar  323  TRP323      0.0012
     50  CZ2       24.2310  -28.7230  -26.1460 C.ar  323  TRP323      0.0191
     51  CZ3       25.2070  -29.5530  -28.1970 C.ar  323  TRP323      0.0001
     52  CH2       24.3510  -29.7000  -27.0980 C.ar  323  TRP323      0.0015
     53  N         19.5910  -24.0080  -30.5600 N.3   326  ARG326     -0.1231
     54  CA        19.1230  -24.9570  -31.5710 C.3   326  ARG326      0.1694
     55  C         19.8010  -26.3210  -31.4840 C.2   326  ARG326      0.2591
     56  O         19.1220  -27.3590  -31.4550 O.2   326  ARG326     -0.2718
     57  CB        19.3000  -24.3680  -32.9650 C.3   326  ARG326      0.0321
     58  CG        19.1950  -25.3670  -34.1150 C.3   326  ARG326      0.0489
     59  CD        19.3650  -24.6390  -35.4320 C.3   326  ARG326      0.2205
     60  NE        19.8400  -25.5080  -36.5060 N.pl3 326  ARG326     -0.0865
     61  CZ        19.1120  -25.8960  -37.5520 C.cat 326  ARG326      0.5346
     62  NH1       17.8420  -25.5120  -37.6880 N.pl3 326  ARG326      0.1354
     63  NH2       19.6600  -26.6810  -38.4680 N.pl3 326  ARG326      0.1354
     64  N         21.1300  -26.3180  -31.4360 N.am  327  LYS327     -0.1980
     65  CA        21.8850  -27.5640  -31.3750 C.3   327  LYS327      0.1596
     66  C         21.5980  -28.3080  -30.0890 C.2   327  LYS327      0.2287
     67  O         21.5860  -29.5420  -30.0660 O.2   327  LYS327     -0.2864
     68  CB        23.3830  -27.3090  -31.5110 C.3   327  LYS327      0.0298
     69  CG        23.7140  -26.4500  -32.7040 C.3   327  LYS327      0.0038
     70  CD        25.1810  -26.7140  -33.1010 C.3   327  LYS327      0.0206
     71  CE        25.3990  -25.8070  -34.3680 C.3   327  LYS327      0.1093
     72  NZ        26.8510  -25.9010  -34.7330 N.3   327  LYS327     -0.1314
     73  N         17.9910  -29.8080  -30.3340 N.3   330  ALA330     -0.1231
     74  CA        18.0040  -30.9780  -31.1930 C.3   330  ALA330      0.1694
     75  C         18.7160  -32.1270  -30.4970 C.2   330  ALA330      0.2591
     76  O         18.2820  -33.2750  -30.5640 O.2   330  ALA330     -0.2718
     77  CB        18.6560  -30.6520  -32.5060 C.3   330  ALA330      0.0304
     78  N         19.8030  -31.8040  -29.8080 N.am  331  ALA331     -0.1980
     79  CA        20.5320  -32.7860  -29.0280 C.3   331  ALA331      0.1597
     80  C         19.5660  -33.5090  -28.0980 C.2   331  ALA331      0.2287
     81  O         19.5100  -34.7430  -28.0900 O.2   331  ALA331     -0.2864
     82  CB        21.6270  -32.1120  -28.2420 C.3   331  ALA331      0.0319
     83  N         16.8690  -35.6180  -30.0460 N.3   334  ASP334     -0.1225
     84  CA        17.4790  -36.8700  -30.4670 C.3   334  ASP334      0.1805
     85  C         17.5070  -37.8570  -29.3120 C.2   334  ASP334      0.2597
     86  O         17.0140  -38.9680  -29.4460 O.2   334  ASP334     -0.2718
     87  CB        18.8850  -36.6270  -31.0430 C.3   334  ASP334      0.1424
     88  CG        19.6420  -37.9210  -31.3510 C.2   334  ASP334      0.3668
     89  OD1       19.8300  -38.7430  -30.4170 O.co2 334  ASP334     -0.2456
     90  OD2       20.0780  -38.1000  -32.5150 O.co2 334  ASP334     -0.2456
     91  N         18.0620  -37.4450  -28.1750 N.am  335  VAL335     -0.1980
     92  CA        18.1640  -38.3290  -27.0010 C.3   335  VAL335      0.1595
     93  C         16.7960  -38.8250  -26.5080 C.2   335  VAL335      0.2287
     94  O         16.6010  -40.0290  -26.3180 O.2   335  VAL335     -0.2864
     95  CB        18.9610  -37.6870  -25.8410 C.3   335  VAL335      0.0276
     96  CG1       19.0260  -38.6240  -24.6580 C.3   335  VAL335      0.0022
     97  CG2       20.3710  -37.3610  -26.2920 C.3   335  VAL335      0.0022
     98  N         14.9140  -30.8720  -39.9590 N.3   369  LEU369     -0.1245
     99  CA        15.8290  -31.1970  -38.8600 C.3   369  LEU369      0.1561
    100  C         15.1920  -32.1380  -37.8330 C.2   369  LEU369      0.2260
    101  O         15.7700  -33.1710  -37.4880 O.2   369  LEU369     -0.2867
    102  CB        16.3550  -29.9280  -38.1760 C.3   369  LEU369      0.0270
    103  CG        17.2320  -30.0960  -36.9250 C.3   369  LEU369      0.0019
    104  CD1       18.4220  -31.0110  -37.1420 C.3   369  LEU369      0.0001
    105  CD2       17.6950  -28.7610  -36.4490 C.3   369  LEU369      0.0001
    106  N         16.3080  -35.6390  -36.5710 N.3   373  ALA373     -0.1245
    107  CA        16.7050  -35.7710  -35.1730 C.3   373  ALA373      0.1562
    108  C         16.0780  -37.0010  -34.5670 C.2   373  ALA373      0.2260
    109  O         16.7470  -37.7600  -33.8700 O.2   373  ALA373     -0.2867
    110  CB        16.3180  -34.5370  -34.3870 C.3   373  ALA373      0.0290
    111  N         20.7990  -28.5510  -47.4920 N.3   406  SER406     -0.1202
    112  CA        21.8090  -29.1750  -46.6590 C.3   406  SER406      0.2020
    113  C         21.2140  -30.0870  -45.5910 C.2   406  SER406      0.2618
    114  O         21.6630  -31.2180  -45.4460 O.2   406  SER406     -0.2717
    115  CB        22.7290  -28.1320  -46.0420 C.3   406  SER406      0.2103
    116  OG        22.2310  -27.7470  -44.7700 O.3   406  SER406     -0.2182
    117  N         20.2080  -29.6270  -44.8520 N.am  407  ILE407     -0.1979
    118  CA        19.6240  -30.4960  -43.8200 C.3   407  ILE407      0.1595
    119  C         18.8630  -31.6440  -44.4620 C.2   407  ILE407      0.2287
    120  O         18.7740  -32.7400  -43.8890 O.2   407  ILE407     -0.2864
    121  CB        18.7060  -29.7690  -42.8130 C.3   407  ILE407      0.0276
    122  CG1       19.0580  -28.2770  -42.7070 C.3   407  ILE407      0.0022
    123  CG2       18.7830  -30.4530  -41.4360 C.3   407  ILE407      0.0022
    124  CD1       20.4870  -27.9220  -42.1130 C.3   407  ILE407      0.0001
    125  N         21.1630  -34.2640  -44.9680 N.3   410  TRP410     -0.1241
    126  CA        21.4070  -34.9340  -43.6990 C.3   410  TRP410      0.1605
    127  C         20.2600  -35.8560  -43.3290 C.2   410  TRP410      0.2264
    128  O         20.4680  -37.0600  -43.1370 O.2   410  TRP410     -0.2867
    129  CB        21.6890  -33.9350  -42.5680 C.3   410  TRP410      0.0550
    130  CG        21.9330  -34.6260  -41.2550 C.ar  410  TRP410      0.0003
    131  CD1       23.0430  -35.3340  -40.8920 C.ar  410  TRP410      0.0946
    132  CD2       21.0330  -34.7060  -40.1510 C.ar  410  TRP410      0.0152
    133  NE1       22.8990  -35.8430  -39.6220 N.ar  410  TRP410     -0.2442
    134  CE2       21.6700  -35.4750  -39.1440 C.ar  410  TRP410      0.0810
    135  CE3       19.7540  -34.1980  -39.9050 C.ar  410  TRP410      0.0012
    136  CZ2       21.0640  -35.7470  -37.9150 C.ar  410  TRP410      0.0191
    137  CZ3       19.1610  -34.4610  -38.6730 C.ar  410  TRP410      0.0001
    138  CH2       19.8120  -35.2300  -37.7010 C.ar  410  TRP410      0.0015
    139  N         19.7970  -40.0780  -42.7280 N.3   414  ARG414     -0.1245
    140  CA        19.3520  -40.6640  -41.4670 C.3   414  ARG414      0.1563
    141  C         18.3040  -41.7520  -41.6640 C.2   414  ARG414      0.2260
    142  O         17.9880  -42.4800  -40.7240 O.2   414  ARG414     -0.2867
    143  CB        18.8510  -39.5810  -40.5110 C.3   414  ARG414      0.0307
    144  CG        19.9640  -38.7480  -39.9020 C.3   414  ARG414      0.0489
    145  CD        20.4730  -39.3600  -38.6150 C.3   414  ARG414      0.2205
    146  NE        19.5580  -39.0300  -37.5290 N.pl3 414  ARG414     -0.0865
    147  CZ        19.7060  -39.4100  -36.2620 C.cat 414  ARG414      0.5346
    148  NH1       20.7510  -40.1470  -35.8930 N.pl3 414  ARG414      0.1354
    149  NH2       18.7930  -39.0520  -35.3620 N.pl3 414  ARG414      0.1354
    150  N         28.4880  -25.4010  -47.7850 N.3   445  ARG445     -0.1245
    151  CA        27.7540  -26.0850  -46.7280 C.3   445  ARG445      0.1563
    152  C         26.9600  -27.2670  -47.2910 C.2   445  ARG445      0.2260
    153  O         26.9530  -28.3550  -46.7020 O.2   445  ARG445     -0.2867
    154  CB        26.8250  -25.1070  -45.9960 C.3   445  ARG445      0.0307
    155  CG        26.3780  -25.5640  -44.5990 C.3   445  ARG445      0.0489
    156  CD        27.0270  -24.7330  -43.4510 C.3   445  ARG445      0.2205
    157  NE        27.0950  -25.4870  -42.1820 N.pl3 445  ARG445     -0.0865
    158  CZ        26.1040  -25.5740  -41.2770 C.cat 445  ARG445      0.5346
    159  NH1       24.9320  -24.9440  -41.4610 N.pl3 445  ARG445      0.1354
    160  NH2       26.2840  -26.3020  -40.1730 N.pl3 445  ARG445      0.1354
    161  N         29.3110  -30.2020  -48.2510 N.3   448  GLU448     -0.1231
    162  CA        29.6270  -30.8990  -47.0070 C.3   448  GLU448      0.1699
    163  C         28.5190  -31.8750  -46.6570 C.2   448  GLU448      0.2592
    164  O         28.7640  -33.0690  -46.5000 O.2   448  GLU448     -0.2718
    165  CB        29.8260  -29.8890  -45.8660 C.3   448  GLU448      0.0402
    166  CG        30.3060  -30.5120  -44.5000 C.3   448  GLU448      0.1161
    167  CD        30.2530  -29.4830  -43.3310 C.2   448  GLU448      0.3649
    168  OE1       29.8240  -28.3130  -43.5300 O.co2 448  GLU448     -0.2457
    169  OE2       30.6410  -29.8570  -42.1960 O.co2 448  GLU448     -0.2457
    170  N         27.2970  -31.3610  -46.5630 N.am  449  ALA449     -0.1980
    171  CA        26.1300  -32.1840  -46.2460 C.3   449  ALA449      0.1597
    172  C         25.9130  -33.3530  -47.2130 C.2   449  ALA449      0.2287
    173  O         25.7210  -34.4920  -46.7830 O.2   449  ALA449     -0.2864
    174  CB        24.8890  -31.3200  -46.1810 C.3   449  ALA449      0.0319
    175  N         28.7150  -36.1530  -47.2130 N.3   452  SER452     -0.1217
    176  CA        28.5590  -36.9390  -45.9950 C.3   452  SER452      0.1889
    177  C         27.3830  -37.8730  -46.1230 C.2   452  SER452      0.2288
    178  O         27.4580  -39.0420  -45.7240 O.2   452  SER452     -0.2866
    179  CB        28.3100  -36.0450  -44.7870 C.3   452  SER452      0.2089
    180  OG        29.3120  -35.0710  -44.6480 O.3   452  SER452     -0.2183
    181  N         28.3510  -40.6480  -48.4520 N.3   455  ALA455     -0.1231
    182  CA        29.2110  -41.5420  -47.6920 C.3   455  ALA455      0.1694
    183  C         28.3530  -42.4780  -46.8450 C.2   455  ALA455      0.2592
    184  O         28.5390  -43.6900  -46.8790 O.2   455  ALA455     -0.2718
    185  CB        30.1670  -40.7510  -46.8250 C.3   455  ALA455      0.0304
    186  N         27.3970  -41.9120  -46.1130 N.am  456  THR456     -0.1953
    187  CA        26.4740  -42.7090  -45.3060 C.3   456  THR456      0.1897
    188  C         25.6410  -43.6640  -46.1630 C.2   456  THR456      0.2313
    189  O         25.4780  -44.8400  -45.8150 O.2   456  THR456     -0.2863
    190  CB        25.5730  -41.8070  -44.4320 C.3   456  THR456      0.1794
    191  OG1       26.3860  -41.1670  -43.4400 O.3   456  THR456     -0.2208
    192  CG2       24.4820  -42.6090  -43.7340 C.3   456  THR456      0.0378
    193  N         27.5460  -46.8570  -47.3350 N.3   459  GLU459     -0.1245
    194  CA        27.7070  -47.8610  -46.2940 C.3   459  GLU459      0.1567
    195  C         26.4860  -48.7660  -46.2280 C.2   459  GLU459      0.2260
    196  O         26.6090  -49.9620  -45.9730 O.2   459  GLU459     -0.2867
    197  CB        27.9210  -47.2060  -44.9420 C.3   459  GLU459      0.0388
    198  CG        29.2640  -46.5500  -44.7920 C.3   459  GLU459      0.1160
    199  CD        29.6700  -46.4160  -43.3420 C.2   459  GLU459      0.3649
    200  OE1       29.7070  -47.4490  -42.6330 O.co2 459  GLU459     -0.2457
    201  OE2       29.9570  -45.2800  -42.9100 O.co2 459  GLU459     -0.2457
    202  N         35.9760  -34.9430  -46.3660 N.3   490  ILE490     -0.1245
    203  CA        34.7590  -35.7280  -46.5120 C.3   490  ILE490      0.1561
    204  C         34.7860  -36.4800  -47.8430 C.2   490  ILE490      0.2260
    205  O         34.3040  -37.6120  -47.9310 O.2   490  ILE490     -0.2867
    206  CB        33.4830  -34.8490  -46.4520 C.3   490  ILE490      0.0252
    207  CG1       33.6330  -33.6720  -45.4510 C.3   490  ILE490      0.0019
    208  CG2       32.2570  -35.7080  -46.1430 C.3   490  ILE490      0.0019
    209  CD1       33.9640  -34.0890  -44.0050 C.3   490  ILE490      0.0001
    210  N         36.7060  -39.6350  -47.5540 N.3   493  ASP493     -0.1239
    211  CA        35.8500  -40.5780  -46.8510 C.3   493  ASP493      0.1674
    212  C         34.7910  -41.1960  -47.7830 C.2   493  ASP493      0.2266
    213  O         34.5540  -42.4110  -47.7540 O.2   493  ASP493     -0.2867
    214  CB        35.2180  -39.8800  -45.6460 C.3   493  ASP493      0.1410
    215  CG        34.2770  -40.7770  -44.8670 C.2   493  ASP493      0.3668
    216  OD1       34.4470  -42.0160  -44.9010 O.co2 493  ASP493     -0.2456
    217  OD2       33.3640  -40.2290  -44.2090 O.co2 493  ASP493     -0.2456
    218  N         34.8300  -45.1890  -48.6200 N.3   497  THR497     -0.1218
    219  CA        33.6140  -45.9740  -48.4230 C.3   497  THR497      0.1862
    220  C         33.1520  -46.6010  -49.7290 C.2   497  THR497      0.2287
    221  O         32.7980  -47.7790  -49.7560 O.2   497  THR497     -0.2866
    222  CB        32.4700  -45.1250  -47.8440 C.3   497  THR497      0.1770
    223  OG1       32.9170  -44.4630  -46.6590 O.3   497  THR497     -0.2211
    224  CG2       31.2890  -45.9970  -47.4940 C.3   497  THR497      0.0375
@<TRIPOS>BOND
     1   221   220    2
     2   220   219    1
     3   218   219    1
     4   181   182    1
     5   219   222    1
     6   161   162    1
     7   205   204    2
     8   222   224    1
     9   222   223    1
    10   204   203    1
    11   150   151    1
    12   212   213    2
    13   212   211    1
    14   182   183    1
    15   182   185    1
    16   210   211    1
    17   111   112    1
    18   193   194    1
    19   152   151    1
    20   152   153    2
    21   172   173    2
    22   172   171    1
    23   175   176    1
    24   162   163    1
    25   162   165    1
    26   184   183    2
    27   211   214    1
    28   183   186   am
    29   151   154    1
    30   112   115    1
    31   112   113    1
    32   163   170   am
    33   163   164    2
    34   170   171    1
    35   203   206    1
    36   203   202    1
    37   206   208    1
    38   206   207    1
    39   194   195    1
    40   194   197    1
    41   171   174    1
    42   195   196    2
    43   188   189    2
    44   188   187    1
    45   177   176    1
    46   177   178    2
    47   186   187    1
    48   115   116    1
    49   154   155    1
    50   176   179    1
    51   165   166    1
    52   214   215    1
    53   113   114    2
    54   113   117   am
    55   207   209    1
    56   187   190    1
    57   125   126    1
    58   197   198    1
    59   216   215   ar
    60   215   217   ar
    61   117   118    1
    62   198   199    1
    63   179   180    1
    64   155   156    1
    65   166   167    1
    66   119   120    2
    67   119   118    1
    68   190   192    1
    69   190   191    1
    70   118   121    1
    71   126   127    1
    72   126   129    1
    73   168   167   ar
    74   156   157    1
    75   199   201   ar
    76   199   200   ar
    77   167   169   ar
    78   127   128    2
    79   121   122    1
    80   121   123    1
    81   139   140    1
    82   122   124    1
    83   129   130    1
    84   157   158    2
    85   141   140    1
    86   141   142    2
    87   140   143    1
    88   159   158    1
    89   158   160    1
    90   130   131   ar
    91   130   132   ar
    92   131   133   ar
    93    38    37    1
    94    36    37   ar
    95    36    34   ar
    96   143   144    1
    97   132   135   ar
    98   132   134   ar
    99    37    35   ar
   100    34    32   ar
   101    98    99    1
   102   135   137   ar
   103   144   145    1
   104   133   134   ar
   105   134   136   ar
   106    35    33   ar
   107    32    33   ar
   108    32    31    1
   109    99   102    1
   110    99   100    1
   111   137   138   ar
   112   145   146    1
   113    63    61    1
   114    31    28    1
   115   102   103    1
   116   136   138   ar
   117   100   101    2
   118    62    61    1
   119    61    60    2
   120   146   147    2
   121   104   103    1
   122   103   105    1
   123    28    27    1
   124    28    29    1
   125   106   107    1
   126    60    59    1
   127    30    29    2
   128   147   148    1
   129   147   149    1
   130    59    58    1
   131   107   108    1
   132   107   110    1
   133    72    71    1
   134   108   109    2
   135    71    70    1
   136    58    57    1
   137    70    69    1
   138    57    54    1
   139    69    68    1
   140    90    88   ar
   141    77    74    1
   142    54    55    1
   143    54    53    1
   144    68    65    1
   145    55    56    2
   146    55    64   am
   147    64    65    1
   148    65    66    1
   149    88    87    1
   150    88    89   ar
   151    74    75    1
   152    74    73    1
   153    87    84    1
   154    76    75    2
   155    75    78   am
   156    84    83    1
   157    84    85    1
   158    39    40    1
   159    66    67    2
   160    78    79    1
   161    86    85    2
   162    40    41    1
   163    40    43    1
   164    85    91   am
   165    41    42    2
   166    79    82    1
   167    79    80    1
   168    49    51   ar
   169    49    46   ar
   170    51    52   ar
   171    91    92    1
   172    43    44    1
   173    80    81    2
   174    46    44   ar
   175    46    48   ar
   176    44    45   ar
   177    52    50   ar
   178    92    93    1
   179    92    95    1
   180    93    94    2
   181    48    50   ar
   182    48    47   ar
   183    97    95    1
   184    45    47   ar
   185    95    96    1
   186    16    15    1
   187    15    17    1
   188    15    14    1
   189    25    24   ar
   190    14    11    1
   191     9     7   ar
   192    11    10    1
   193    11    12    1
   194    24    23    1
   195    24    26   ar
   196     7     8   ar
   197     7     6    1
   198    23    22    1
   199     1     2    1
   200    13    12    2
   201     6     5    1
   202     2     5    1
   203     2     3    1
   204    22    19    1
   205    18    19    1
   206     3     4    2
   207    19    20    1
   208    20    21    2
