@<TRIPOS>MOLECULE
tmp/2z5tC00.pdb
 156 151 0 0 0
SMALL
GASTEIGER

@<TRIPOS>ATOM
      1  N          9.0150    8.3490   15.2940 N.3    37  MET37      -0.1230
      2  CA         8.0280    7.3940   14.7700 C.3    37  MET37       0.1702
      3  C          6.9260    7.1230   15.7830 C.2    37  MET37       0.2592
      4  O          5.7410    7.0390   15.4300 O.2    37  MET37      -0.2718
      5  CB         8.7130    6.0790   14.3910 C.3    37  MET37       0.0401
      6  CG         9.6750    6.1910   13.2150 C.3    37  MET37       0.0596
      7  SD         8.8260    6.6230   11.6860 S.3    37  MET37      -0.1393
      8  CE         7.7290    5.2190   11.4880 C.3    37  MET37       0.0692
      9  N          7.3320    6.9830   17.0420 N.am   38  HIS38      -0.1976
     10  CA         6.4080    6.7630   18.1460 C.3    38  HIS38       0.1656
     11  C          5.3920    7.8920   18.2670 C.2    38  HIS38       0.2291
     12  O          4.1880    7.6340   18.3020 O.2    38  HIS38      -0.2864
     13  CB         7.1730    6.5690   19.4660 C.3    38  HIS38       0.0771
     14  CG         6.3130    6.7000   20.6850 C.ar   38  HIS38       0.0820
     15  ND1        5.4910    5.6890   21.1290 N.ar   38  HIS38      -0.2267
     16  CD2        6.1300    7.7340   21.5400 C.ar   38  HIS38       0.1154
     17  CE1        4.8470    6.0870   22.2100 C.ar   38  HIS38       0.1986
     18  NE2        5.2160    7.3250   22.4800 N.ar   38  HIS38      -0.2212
     19  N          4.5680   10.3950   16.1740 N.3    40  LEU40      -0.1231
     20  CA         3.7220   10.4470   14.9730 C.3    40  LEU40       0.1693
     21  C          2.5280    9.5000   15.0400 C.2    40  LEU40       0.2593
     22  O          1.3970    9.9010   14.7700 O.2    40  LEU40      -0.2718
     23  CB         4.5430   10.1420   13.7190 C.3    40  LEU40       0.0284
     24  CG         5.4600   11.2630   13.2380 C.3    40  LEU40       0.0019
     25  CD1        6.3270   10.7600   12.0800 C.3    40  LEU40       0.0001
     26  CD2        4.6380   12.4820   12.8450 C.3    40  LEU40       0.0001
     27  N          2.7840    8.2490   15.4040 N.am   41  GLY41      -0.1942
     28  CA         1.7190    7.2650   15.6070 C.3    41  GLY41       0.2014
     29  C          0.7320    7.6300   16.7020 C.2    41  GLY41       0.2638
     30  O         -0.4750    7.3740   16.5650 O.2    41  GLY41      -0.2714
     31  N          1.2310    8.2250   17.7890 N.am   42  GLN42      -0.1977
     32  CA         0.3540    8.6980   18.8730 C.3    42  GLN42       0.1601
     33  C         -0.4810    9.8790   18.3890 C.2    42  GLN42       0.2287
     34  O         -1.6680    9.9830   18.7130 O.2    42  GLN42      -0.2864
     35  CB         1.1490    9.1130   20.1160 C.3    42  GLN42       0.0394
     36  CG         2.0930    8.0640   20.6850 C.3    42  GLN42       0.0908
     37  CD         1.3780    6.9450   21.3920 C.2    42  GLN42       0.2608
     38  OE1        0.9250    5.9940   20.7640 O.2    42  GLN42      -0.2717
     39  NE2        1.2820    7.0430   22.7130 N.am   42  GLN42      -0.0878
     40  N         -1.4970   10.5140   15.2980 N.3    44  ILE44      -0.1231
     41  CA        -2.5220    9.9970   14.3950 C.3    44  ILE44       0.1692
     42  C         -3.6760    9.3580   15.1740 C.2    44  ILE44       0.2591
     43  O         -4.8430    9.4480   14.7690 O.2    44  ILE44      -0.2718
     44  CB        -1.9060    9.0200   13.3620 C.3    44  ILE44       0.0266
     45  CG1       -0.9550    9.7850   12.4310 C.3    44  ILE44       0.0019
     46  CG2       -2.9960    8.3010   12.5660 C.3    44  ILE44       0.0020
     47  CD1        0.0520    8.9190   11.6880 C.3    44  ILE44       0.0001
     48  N         -3.3400    8.7390   16.3040 N.am   45  MET45      -0.1979
     49  CA        -4.3330    8.1620   17.2010 C.3    45  MET45       0.1605
     50  C         -5.1580    9.2520   17.8730 C.2    45  MET45       0.2287
     51  O         -6.3850    9.2280   17.8130 O.2    45  MET45      -0.2864
     52  CB        -3.6600    7.3130   18.2760 C.3    45  MET45       0.0413
     53  CG        -4.2280    5.9240   18.4100 C.3    45  MET45       0.0598
     54  SD        -5.9940    5.8280   18.6970 S.3    45  MET45      -0.1393
     55  CE        -6.3090    4.1460   18.1880 C.3    45  MET45       0.0692
     56  N         -6.8450    8.0760   11.0920 N.3    50  TYR50      -0.1241
     57  CA        -6.9340    6.8040   10.3910 C.3    50  TYR50       0.1605
     58  C         -8.3830    6.4100   10.1260 C.2    50  TYR50       0.2264
     59  O         -9.2880    6.7530   10.9000 O.2    50  TYR50      -0.2867
     60  CB        -6.1970    5.6970   11.1640 C.3    50  TYR50       0.0534
     61  CG        -6.8120    5.3530   12.5030 C.ar   50  TYR50      -0.0201
     62  CD1       -7.8490    4.4250   12.5940 C.ar   50  TYR50      -0.0009
     63  CD2       -6.3500    5.9460   13.6790 C.ar   50  TYR50      -0.0009
     64  CE1       -8.4150    4.1030   13.8110 C.ar   50  TYR50       0.0417
     65  CE2       -6.9080    5.6230   14.9070 C.ar   50  TYR50       0.0417
     66  CZ        -7.9400    4.7050   14.9600 C.ar   50  TYR50       0.1957
     67  OH        -8.5090    4.3840   16.1560 O.3    50  TYR50      -0.2866
     68  N        -12.5250    1.7530    9.1880 N.3    53  GLN53      -0.1245
     69  CA       -12.6770    0.4920    8.4620 C.3    53  GLN53       0.1566
     70  C        -11.3340   -0.0730    7.9990 C.2    53  GLN53       0.2260
     71  O        -10.9800   -1.2000    8.3470 O.2    53  GLN53      -0.2867
     72  CB       -13.6010    0.6970    7.2560 C.3    53  GLN53       0.0367
     73  CG       -15.0450    0.2640    7.4690 C.3    53  GLN53       0.0905
     74  CD       -15.3570   -1.1020    6.8540 C.2    53  GLN53       0.2608
     75  OE1      -14.5130   -1.7150    6.1870 O.2    53  GLN53      -0.2717
     76  NE2      -16.5810   -1.5800    7.0740 N.am   53  GLN53      -0.0878
     77  N         -7.7880    0.4750    8.6440 N.3    55  GLN55      -0.1231
     78  CA        -7.0070    1.2130    9.6490 C.3    55  GLN55       0.1698
     79  C         -5.5550    1.4990    9.2490 C.2    55  GLN55       0.2592
     80  O         -4.8440    2.2210    9.9560 O.2    55  GLN55      -0.2718
     81  CB        -7.0920    0.5390   11.0300 C.3    55  GLN55       0.0381
     82  CG        -8.5220    0.3550   11.5370 C.3    55  GLN55       0.0905
     83  CD        -8.6780    0.5610   13.0350 C.2    55  GLN55       0.2608
     84  OE1       -7.7200    0.4680   13.8020 O.2    55  GLN55      -0.2717
     85  NE2       -9.9020    0.8500   13.4570 N.am   55  GLN55      -0.0878
     86  N         -5.1300    0.9450    8.1150 N.am   56  HIS56      -0.1976
     87  CA        -3.8300    1.2780    7.5200 C.3    56  HIS56       0.1656
     88  C         -3.8690    2.6150    6.7760 C.2    56  HIS56       0.2291
     89  O         -2.8250    3.1760    6.4530 O.2    56  HIS56      -0.2864
     90  CB        -3.3530    0.1630    6.5800 C.3    56  HIS56       0.0771
     91  CG        -4.3390   -0.1840    5.5080 C.ar   56  HIS56       0.0820
     92  ND1       -4.1180    0.0930    4.1770 N.ar   56  HIS56      -0.2267
     93  CD2       -5.5560   -0.7750    5.5730 C.ar   56  HIS56       0.1154
     94  CE1       -5.1520   -0.3190    3.4670 C.ar   56  HIS56       0.1986
     95  NE2       -6.0400   -0.8450    4.2910 N.ar   56  HIS56      -0.2212
     96  N         -4.5050    6.5390    6.4370 N.3    58  VAL58      -0.1245
     97  CA        -4.4930    7.7630    7.2280 C.3    58  VAL58       0.1561
     98  C         -4.9730    8.9360    6.3770 C.2    58  VAL58       0.2260
     99  O         -4.3690    9.2630    5.3570 O.2    58  VAL58      -0.2867
    100  CB        -3.0790    8.0620    7.8250 C.3    58  VAL58       0.0252
    101  CG1       -3.1020    9.3400    8.6630 C.3    58  VAL58       0.0019
    102  CG2       -2.5770    6.8750    8.6590 C.3    58  VAL58       0.0019
    103  N         -2.5920    8.7160    3.2320 N.3    74  PHE74      -0.1241
    104  CA        -1.3760    7.9400    3.4720 C.3    74  PHE74       0.1605
    105  C         -1.7490    6.5040    3.8260 C.2    74  PHE74       0.2264
    106  O         -2.7540    6.2690    4.4970 O.2    74  PHE74      -0.2867
    107  CB        -0.5510    8.6040    4.5890 C.3    74  PHE74       0.0534
    108  CG         0.6720    7.8270    5.0050 C.ar   74  PHE74      -0.0203
    109  CD1        1.8510    7.9050    4.2690 C.ar   74  PHE74      -0.0042
    110  CD2        0.6470    7.0270    6.1460 C.ar   74  PHE74      -0.0042
    111  CE1        2.9820    7.1910    4.6560 C.ar   74  PHE74      -0.0003
    112  CE2        1.7750    6.3060    6.5430 C.ar   74  PHE74      -0.0003
    113  CZ         2.9440    6.3880    5.7990 C.ar   74  PHE74      -0.0000
    114  N         -0.1510    3.0250    5.6290 N.3    76  VAL76      -0.1231
    115  CA         0.9700    2.4630    6.3890 C.3    76  VAL76       0.1692
    116  C          1.5480    1.1890    5.7420 C.2    76  VAL76       0.2591
    117  O          2.7310    0.8840    5.9250 O.2    76  VAL76      -0.2718
    118  CB         0.7270    2.3900    7.9680 C.3    76  VAL76       0.0266
    119  CG1       -0.6140    3.0000    8.3950 C.3    76  VAL76       0.0020
    120  CG2        0.9280    0.9960    8.5460 C.3    76  VAL76       0.0020
    121  N          0.7340    0.4930    4.9440 N.am   77  LYS77      -0.1980
    122  CA         1.2060   -0.6520    4.1400 C.3    77  LYS77       0.1596
    123  C          1.9630   -0.2540    2.8620 C.2    77  LYS77       0.2287
    124  O          2.4440   -1.1180    2.1250 O.2    77  LYS77      -0.2864
    125  CB         0.0440   -1.5720    3.7750 C.3    77  LYS77       0.0298
    126  CG        -0.5670   -2.3170    4.9370 C.3    77  LYS77       0.0038
    127  CD        -1.8480   -2.9970    4.4970 C.3    77  LYS77       0.0206
    128  CE        -2.5160   -3.7250    5.6380 C.3    77  LYS77       0.1093
    129  NZ        -1.7190   -4.9080    6.0470 N.3    77  LYS77      -0.1314
    130  N          4.3640    2.8410    2.8530 N.3    79  PRO79      -0.2116
    131  CA         4.6940    3.9850    3.7050 C.3    79  PRO79       0.1372
    132  C          5.8590    4.8740    3.2740 C.2    79  PRO79       0.2244
    133  O          6.2710    5.7470    4.0430 O.2    79  PRO79      -0.2868
    134  CB         5.0370    3.3100    5.0310 C.3    79  PRO79       0.0268
    135  CG         5.6410    1.9640    4.6200 C.3    79  PRO79       0.0207
    136  CD         5.1640    1.6540    3.2130 C.3    79  PRO79       0.0892
    137  N          6.1980    8.6490    4.2000 N.3    82  LEU82      -0.1231
    138  CA         6.6240    8.9410    5.5700 C.3    82  LEU82       0.1693
    139  C          8.1460    9.0980    5.6670 C.2    82  LEU82       0.2592
    140  O          8.6450   10.0700    6.2390 O.2    82  LEU82      -0.2718
    141  CB         6.1380    7.8410    6.5200 C.3    82  LEU82       0.0284
    142  CG         6.6790    7.7670    7.9520 C.3    82  LEU82       0.0019
    143  CD1        6.1650    8.9280    8.7850 C.3    82  LEU82       0.0001
    144  CD2        6.2790    6.4550    8.5840 C.3    82  LEU82       0.0001
    145  N          8.8790    8.1500    5.0870 N.am   83  TYR83      -0.1976
    146  CA        10.3420    8.1510    5.1730 C.3    83  TYR83       0.1639
    147  C         10.9630    9.3390    4.4670 C.2    83  TYR83       0.2290
    148  O         11.9100    9.9510    4.9850 O.2    83  TYR83      -0.2864
    149  CB        10.9220    6.8240    4.6820 C.3    83  TYR83       0.0560
    150  CG        10.3920    5.6830    5.5080 C.ar   83  TYR83      -0.0198
    151  CD1        9.3470    4.8900    5.0390 C.ar   83  TYR83      -0.0009
    152  CD2       10.8870    5.4400    6.7940 C.ar   83  TYR83      -0.0009
    153  CE1        8.8340    3.8670    5.8070 C.ar   83  TYR83       0.0417
    154  CE2       10.3750    4.4150    7.5720 C.ar   83  TYR83       0.0417
    155  CZ         9.3550    3.6310    7.0690 C.ar   83  TYR83       0.1957
    156  OH         8.8410    2.6120    7.8240 O.3    83  TYR83      -0.2866
@<TRIPOS>BOND
     1   124   123    2
     2   130   136    1
     3   130   131    1
     4   123   122    1
     5   136   135    1
     6   103   104    1
     7   132   131    1
     8   132   133    2
     9    94    92   ar
    10    94    95   ar
    11   104   105    1
    12   104   107    1
    13   131   134    1
    14   125   122    1
    15   125   126    1
    16   105   106    2
    17   122   121    1
    18    92    91   ar
    19   137   138    1
    20   109   111   ar
    21   109   108   ar
    22    95    93   ar
    23   147   148    2
    24   147   146    1
    25   127   126    1
    26   127   128    1
    27   107   108    1
    28   135   134    1
    29   111   113   ar
    30   149   146    1
    31   149   150    1
    32   121   116   am
    33   108   110   ar
    34   151   150   ar
    35   151   153   ar
    36   145   146    1
    37   145   139   am
    38    99    98    2
    39   150   152   ar
    40    91    93   ar
    41    91    90    1
    42   138   139    1
    43   138   141    1
    44   114   115    1
    45   128   129    1
    46   139   140    2
    47   116   117    2
    48   116   115    1
    49   113   112   ar
    50   153   155   ar
    51   110   112   ar
    52    75    74    2
    53    98    97    1
    54   115   118    1
    55    96    97    1
    56    89    88    2
    57   141   142    1
    58    90    87    1
    59    88    87    1
    60   152   154   ar
    61    74    76   am
    62    74    73    1
    63   155   154   ar
    64   155   156    1
    65    97   100    1
    66    72    73    1
    67    72    69    1
    68    87    86    1
    69   100   102    1
    70   100   101    1
    71   142   144    1
    72   142   143    1
    73   118   119    1
    74   118   120    1
    75    70    71    2
    76    70    69    1
    77    86    79   am
    78    69    68    1
    79    77    78    1
    80    79    78    1
    81    79    80    2
    82    78    81    1
    83    58    57    1
    84    58    59    2
    85    57    56    1
    86    57    60    1
    87    81    82    1
    88    60    61    1
    89     8     7    1
    90    82    83    1
    91     7     6    1
    92    47    45    1
    93    25    24    1
    94    45    44    1
    95    61    62   ar
    96    61    63   ar
    97    46    44    1
    98    62    64   ar
    99    26    24    1
   100    83    85   am
   101    83    84    2
   102     6     5    1
   103    24    23    1
   104    44    41    1
   105    63    65   ar
   106    23    20    1
   107    64    66   ar
   108     5     2    1
   109    41    42    1
   110    41    40    1
   111    43    42    2
   112     2     1    1
   113     2     3    1
   114    22    21    2
   115    65    66   ar
   116    66    67    1
   117    20    21    1
   118    20    19    1
   119    21    27   am
   120    42    48   am
   121    27    28    1
   122     4     3    2
   123    28    29    1
   124     3     9   am
   125    48    49    1
   126    30    29    2
   127    29    31   am
   128     9    10    1
   129    49    50    1
   130    49    52    1
   131    31    32    1
   132    51    50    2
   133    10    11    1
   134    10    13    1
   135    55    54    1
   136    11    12    2
   137    52    53    1
   138    33    34    2
   139    33    32    1
   140    53    54    1
   141    32    35    1
   142    13    14    1
   143    35    36    1
   144    14    15   ar
   145    14    16   ar
   146    36    37    1
   147    38    37    2
   148    15    17   ar
   149    37    39   am
   150    16    18   ar
   151    17    18   ar
