@<TRIPOS>MOLECULE
tmp/2z5yA01.pdb
 162 154 0 0 0
SMALL
GASTEIGER

@<TRIPOS>ATOM
      1  N        -37.8240  -34.9730  -14.3890 N.3    58  TYR58      -0.1241
      2  CA       -39.1870  -35.0130  -14.9860 C.3    58  TYR58       0.1605
      3  C        -39.2010  -35.5320  -16.3870 C.2    58  TYR58       0.2264
      4  O        -38.3060  -35.1890  -17.2110 O.2    58  TYR58      -0.2867
      5  CB       -39.8580  -33.5980  -14.9680 C.3    58  TYR58       0.0534
      6  CG       -39.8730  -33.0740  -13.5410 C.ar   58  TYR58      -0.0201
      7  CD1      -38.9730  -32.0850  -13.1180 C.ar   58  TYR58      -0.0009
      8  CD2      -40.6780  -33.6730  -12.5950 C.ar   58  TYR58      -0.0009
      9  CE1      -38.9140  -31.6820  -11.8060 C.ar   58  TYR58       0.0417
     10  CE2      -40.6610  -33.2520  -11.2710 C.ar   58  TYR58       0.0417
     11  CZ       -39.7770  -32.2580  -10.8770 C.ar   58  TYR58       0.1957
     12  OH       -39.7970  -31.8640   -9.5480 O.3    58  TYR58      -0.2866
     13  N        -52.3970  -25.0040   -7.9560 N.3    86  LEU86      -0.1245
     14  CA       -51.1480  -24.3260   -8.2440 C.3    86  LEU86       0.1561
     15  C        -51.3110  -22.9280   -7.7330 C.2    86  LEU86       0.2260
     16  O        -52.4230  -22.4580   -7.6310 O.2    86  LEU86      -0.2867
     17  CB       -50.9080  -24.2720   -9.7480 C.3    86  LEU86       0.0270
     18  CG       -50.4230  -25.5260  -10.4520 C.3    86  LEU86       0.0019
     19  CD1      -51.4780  -26.6290  -10.4680 C.3    86  LEU86       0.0001
     20  CD2      -49.9000  -25.1520  -11.8690 C.3    86  LEU86       0.0001
     21  N        -52.4780  -24.5060  -16.6510 N.3   100  ALA100     -0.1245
     22  CA       -51.0140  -24.5840  -16.7800 C.3   100  ALA100      0.1562
     23  C        -50.3680  -23.1860  -16.6040 C.2   100  ALA100      0.2260
     24  O        -49.1770  -23.0440  -16.2330 O.2   100  ALA100     -0.2867
     25  CB       -50.6320  -25.1630  -18.1090 C.3   100  ALA100      0.0290
     26  N        -37.2150  -20.1410  -16.3090 N.3   169  ILE169     -0.1231
     27  CA       -37.6480  -21.4500  -15.8910 C.3   169  ILE169      0.1692
     28  C        -37.2340  -22.5240  -16.8970 C.2   169  ILE169      0.2592
     29  O        -36.9040  -23.6430  -16.5090 O.2   169  ILE169     -0.2718
     30  CB       -39.1830  -21.4690  -15.6170 C.3   169  ILE169      0.0266
     31  CG1      -39.4720  -20.7240  -14.2810 C.3   169  ILE169      0.0019
     32  CG2      -39.7010  -22.9190  -15.5120 C.3   169  ILE169      0.0020
     33  CD1      -40.9780  -20.4330  -13.9810 C.3   169  ILE169      0.0001
     34  N        -37.2140  -22.1550  -18.1750 N.am  170  ASN170     -0.1974
     35  CA       -36.9680  -23.0900  -19.2680 C.3   170  ASN170      0.1688
     36  C        -35.5290  -23.1860  -19.6980 C.2   170  ASN170      0.2292
     37  O        -35.1360  -24.2120  -20.2370 O.2   170  ASN170     -0.2864
     38  CB       -37.7700  -22.6690  -20.4860 C.3   170  ASN170      0.1181
     39  CG       -39.1840  -23.0190  -20.3460 C.2   170  ASN170      0.2629
     40  OD1      -39.5230  -24.1910  -20.1370 O.2   170  ASN170     -0.2716
     41  ND2      -40.0510  -22.0100  -20.4100 N.am  170  ASN170     -0.0877
     42  N        -44.1860  -27.3890  -23.0580 N.3   196  ILE196     -0.1231
     43  CA       -42.9310  -27.2540  -22.3340 C.3   196  ILE196      0.1692
     44  C        -43.2130  -26.8700  -20.8610 C.2   196  ILE196      0.2592
     45  O        -42.4660  -27.2570  -19.9440 O.2   196  ILE196     -0.2718
     46  CB       -42.0010  -26.2500  -22.9990 C.3   196  ILE196      0.0266
     47  CG1      -40.5750  -26.4580  -22.5260 C.3   196  ILE196      0.0019
     48  CG2      -42.3950  -24.8250  -22.6700 C.3   196  ILE196      0.0020
     49  CD1      -39.4870  -25.7220  -23.3450 C.3   196  ILE196      0.0001
     50  N        -44.3020  -26.1300  -20.6540 N.am  197  PHE197     -0.1962
     51  CA       -44.5290  -25.4740  -19.3910 C.3   197  PHE197      0.1771
     52  C        -45.4490  -26.2520  -18.4860 C.2   197  PHE197      0.2620
     53  O        -45.3710  -26.0470  -17.2740 O.2   197  PHE197     -0.2715
     54  CB       -45.0760  -24.0640  -19.5890 C.3   197  PHE197      0.0574
     55  CG       -44.9590  -23.1810  -18.3740 C.ar  197  PHE197     -0.0200
     56  CD1      -43.7040  -22.8310  -17.8670 C.ar  197  PHE197     -0.0042
     57  CD2      -46.1020  -22.7350  -17.7100 C.ar  197  PHE197     -0.0042
     58  CE1      -43.5800  -22.0120  -16.7750 C.ar  197  PHE197     -0.0003
     59  CE2      -45.9970  -21.8900  -16.5890 C.ar  197  PHE197     -0.0003
     60  CZ       -44.7230  -21.5290  -16.1250 C.ar  197  PHE197     -0.0000
     61  N        -46.2480  -27.1760  -19.0450 N.am  198  SER198     -0.1936
     62  CA       -47.2430  -27.9520  -18.2860 C.3   198  SER198      0.2055
     63  C        -46.6860  -29.1200  -17.5050 C.2   198  SER198      0.2642
     64  O        -45.6700  -29.6850  -17.8580 O.2   198  SER198     -0.2714
     65  CB       -48.3140  -28.5800  -19.2020 C.3   198  SER198      0.2130
     66  OG       -48.9700  -27.5950  -19.9660 O.3   198  SER198     -0.2179
     67  N        -47.4590  -29.5250  -16.5110 N.am  199  VAL199     -0.1977
     68  CA       -47.2350  -30.7200  -15.7510 C.3   199  VAL199      0.1596
     69  C        -48.0990  -31.7610  -16.4480 C.2   199  VAL199      0.2287
     70  O        -47.5900  -32.5910  -17.2080 O.2   199  VAL199     -0.2864
     71  CB       -47.6650  -30.5700  -14.2440 C.3   199  VAL199      0.0276
     72  CG1      -47.5480  -31.8840  -13.5730 C.3   199  VAL199      0.0022
     73  CG2      -46.8200  -29.4390  -13.5020 C.3   199  VAL199      0.0022
     74  N        -43.2990  -31.6830  -17.3870 N.3   204  GLN204     -0.1245
     75  CA       -43.1870  -31.9650  -15.9530 C.3   204  GLN204      0.1566
     76  C        -44.2020  -32.9980  -15.4800 C.2   204  GLN204      0.2260
     77  O        -44.3590  -33.1820  -14.2740 O.2   204  GLN204     -0.2867
     78  CB       -43.3460  -30.6810  -15.1470 C.3   204  GLN204      0.0367
     79  CG       -42.1640  -29.7040  -15.2550 C.3   204  GLN204      0.0905
     80  CD       -41.9920  -29.1840  -16.6950 C.2   204  GLN204      0.2608
     81  OE1      -40.9710  -29.4290  -17.3120 O.2   204  GLN204     -0.2717
     82  NE2      -43.0390  -28.5660  -17.2500 N.am  204  GLN204     -0.0878
     83  N        -46.9630  -26.6940   -6.1630 N.3   312  CYS312     -0.1235
     84  CA       -46.4000  -25.9930   -7.2730 C.3   312  CYS312      0.1677
     85  C        -46.6410  -24.4930   -7.0650 C.2   312  CYS312      0.2270
     86  O        -47.7960  -24.0370   -6.9180 O.2   312  CYS312     -0.2867
     87  CB       -47.0010  -26.4570   -8.5870 C.3   312  CYS312      0.0956
     88  SG       -46.3870  -25.4640   -9.9680 S.3   312  CYS312     -0.0801
     89  N        -45.3180  -20.8240   -8.7350 N.3   314  ILE314     -0.1245
     90  CA       -44.6170  -19.9550   -9.6760 C.3   314  ILE314      0.1561
     91  C        -44.3120  -18.6490   -8.9610 C.2   314  ILE314      0.2260
     92  O        -45.1740  -17.7910   -8.8700 O.2   314  ILE314     -0.2867
     93  CB       -45.4880  -19.6860  -10.9210 C.3   314  ILE314      0.0252
     94  CG1      -46.0320  -21.0360  -11.4650 C.3   314  ILE314      0.0019
     95  CG2      -44.7220  -18.9070  -11.9370 C.3   314  ILE314      0.0019
     96  CD1      -46.7890  -21.0290  -12.8190 C.3   314  ILE314      0.0001
     97  N        -39.5070  -21.4000   -8.9110 N.3   324  ILE324     -0.1231
     98  CA       -40.5470  -22.3660   -9.1810 C.3   324  ILE324      0.1692
     99  C        -40.3430  -23.5980   -8.2960 C.2   324  ILE324      0.2593
    100  O        -39.2610  -23.8460   -7.7990 O.2   324  ILE324     -0.2718
    101  CB       -40.6570  -22.7270  -10.6920 C.3   324  ILE324      0.0266
    102  CG1      -41.9720  -23.4530  -10.9500 C.3   324  ILE324      0.0019
    103  CG2      -39.4280  -23.5410  -11.1800 C.3   324  ILE324      0.0020
    104  CD1      -42.7550  -22.9450  -12.1330 C.3   324  ILE324      0.0001
    105  N        -41.4240  -24.3220   -8.0440 N.am  325  THR325     -0.1939
    106  CA       -41.4010  -25.4690   -7.1480 C.3   325  THR325      0.2028
    107  C        -42.4190  -26.4650   -7.6490 C.2   325  THR325      0.2642
    108  O        -43.3970  -26.1210   -8.3210 O.2   325  THR325     -0.2714
    109  CB       -41.8320  -25.1140   -5.6670 C.3   325  THR325      0.1808
    110  OG1      -43.2340  -24.7980   -5.6370 O.3   325  THR325     -0.2208
    111  CG2      -41.0340  -23.9600   -5.0680 C.3   325  THR325      0.0379
    112  N        -42.1770  -27.7100   -7.2720 N.am  326  LEU326     -0.1977
    113  CA       -43.1370  -28.7970   -7.3790 C.3   326  LEU326      0.1596
    114  C        -43.0930  -29.5400   -6.0610 C.2   326  LEU326      0.2287
    115  O        -42.0660  -29.5610   -5.3810 O.2   326  LEU326     -0.2864
    116  CB       -42.7840  -29.7620   -8.5500 C.3   326  LEU326      0.0297
    117  CG       -43.0500  -29.1750   -9.9470 C.3   326  LEU326      0.0022
    118  CD1      -42.4040  -29.9460  -11.1190 C.3   326  LEU326      0.0001
    119  CD2      -44.5470  -29.0120  -10.1590 C.3   326  LEU326      0.0001
    120  N        -39.6690  -29.5400   -4.0500 N.3   339  MET339     -0.1245
    121  CA       -38.4990  -29.3700   -4.9280 C.3   339  MET339      0.1570
    122  C        -38.5530  -27.9290   -5.3150 C.2   339  MET339      0.2261
    123  O        -39.5520  -27.4770   -5.8160 O.2   339  MET339     -0.2867
    124  CB       -38.6510  -30.2190   -6.1890 C.3   339  MET339      0.0387
    125  CG       -37.5450  -30.0500   -7.2780 C.3   339  MET339      0.0595
    126  SD       -37.6160  -28.6640   -8.5210 S.3   339  MET339     -0.1393
    127  CE       -39.1660  -28.8990   -9.3730 C.3   339  MET339      0.0692
    128  N        -36.4490  -24.6830   -7.3890 N.3   341  PHE341     -0.1241
    129  CA       -35.2900  -24.2350   -8.1690 C.3   341  PHE341      0.1605
    130  C        -34.9460  -22.7770   -7.8920 C.2   341  PHE341      0.2264
    131  O        -35.8140  -21.8980   -7.9030 O.2   341  PHE341     -0.2867
    132  CB       -35.5160  -24.3310   -9.6900 C.3   341  PHE341      0.0534
    133  CG       -35.6120  -25.7190  -10.2400 C.ar  341  PHE341     -0.0203
    134  CD1      -34.6830  -26.6890   -9.9490 C.ar  341  PHE341     -0.0042
    135  CD2      -36.6010  -26.0380  -11.1300 C.ar  341  PHE341     -0.0042
    136  CE1      -34.7820  -27.9640  -10.5120 C.ar  341  PHE341     -0.0003
    137  CE2      -36.7050  -27.3300  -11.6680 C.ar  341  PHE341     -0.0003
    138  CZ       -35.8000  -28.2760  -11.3520 C.ar  341  PHE341     -0.0000
    139  N        -30.0320  -26.3070  -16.9540 N.3   396  TYR396     -0.1241
    140  CA       -30.1580  -27.6790  -17.4600 C.3   396  TYR396      0.1605
    141  C        -29.2320  -27.9590  -18.6140 C.2   396  TYR396      0.2264
    142  O        -28.7900  -29.0850  -18.8410 O.2   396  TYR396     -0.2867
    143  CB       -31.5710  -27.9580  -17.9530 C.3   396  TYR396      0.0534
    144  CG       -32.6720  -27.3040  -17.1650 C.ar  396  TYR396     -0.0201
    145  CD1      -32.7990  -27.5220  -15.7910 C.ar  396  TYR396     -0.0009
    146  CD2      -33.6120  -26.4760  -17.7990 C.ar  396  TYR396     -0.0009
    147  CE1      -33.7760  -26.8880  -15.0700 C.ar  396  TYR396      0.0417
    148  CE2      -34.6130  -25.8960  -17.0820 C.ar  396  TYR396      0.0417
    149  CZ       -34.6860  -26.1180  -15.7130 C.ar  396  TYR396      0.1957
    150  OH       -35.7000  -25.5570  -14.9760 O.3   396  TYR396     -0.2866
    151  N        -32.8750  -31.9600  -22.5140 N.3   433  TYR433     -0.1241
    152  CA       -33.6060  -32.8490  -21.6570 C.3   433  TYR433      0.1605
    153  C        -32.9870  -34.2410  -21.6710 C.2   433  TYR433      0.2264
    154  O        -32.1980  -34.5510  -22.5280 O.2   433  TYR433     -0.2867
    155  CB       -35.0260  -32.9370  -22.1550 C.3   433  TYR433      0.0534
    156  CG       -35.8270  -31.7230  -21.8830 C.ar  433  TYR433     -0.0201
    157  CD1      -35.7060  -30.5770  -22.6930 C.ar  433  TYR433     -0.0009
    158  CD2      -36.7540  -31.7030  -20.8180 C.ar  433  TYR433     -0.0009
    159  CE1      -36.4500  -29.4160  -22.4300 C.ar  433  TYR433      0.0417
    160  CE2      -37.5310  -30.5830  -20.5670 C.ar  433  TYR433      0.0417
    161  CZ       -37.3520  -29.4370  -21.3740 C.ar  433  TYR433      0.1957
    162  OH       -38.1130  -28.3290  -21.1330 O.3   433  TYR433     -0.2866
@<TRIPOS>BOND
     1    49    47    1
     2    42    43    1
     3    46    48    1
     4    46    47    1
     5    46    43    1
     6   157   159   ar
     7   157   156   ar
     8   154   153    2
     9   151   152    1
    10   159   161   ar
    11    43    44    1
    12   155   156    1
    13   155   152    1
    14   156   158   ar
    15   153   152    1
    16   161   162    1
    17   161   160   ar
    18    44    50   am
    19    44    45    2
    20   158   160   ar
    21    50    51    1
    22    38    39    1
    23    38    35    1
    24    41    39   am
    25    39    40    2
    26    37    36    2
    27    66    65    1
    28    36    35    1
    29    54    51    1
    30    54    55    1
    31    51    52    1
    32    35    34    1
    33    65    62    1
    34    61    52   am
    35    61    62    1
    36   142   141    2
    37   141   140    1
    38    52    53    2
    39    55    56   ar
    40    55    57   ar
    41    62    63    1
    42    34    28   am
    43    25    22    1
    44   143   140    1
    45   143   144    1
    46    56    58   ar
    47    64    63    2
    48   146   144   ar
    49   146   148   ar
    50    57    59   ar
    51    63    67   am
    52   140   139    1
    53    74    75    1
    54    81    80    2
    55    82    80   am
    56     4     3    2
    57    70    69    2
    58   144   145   ar
    59   148   149   ar
    60    28    29    2
    61    28    27    1
    62    22    21    1
    63    22    23    1
    64    58    60   ar
    65    80    79    1
    66    23    24    2
    67    59    60   ar
    68    67    68    1
    69    69    68    1
    70     3     2    1
    71    26    27    1
    72    75    76    1
    73    75    78    1
    74    27    30    1
    75   145   147   ar
    76    68    71    1
    77   149   147   ar
    78   149   150    1
    79    30    32    1
    80    30    31    1
    81    76    77    2
    82    79    78    1
    83     2     5    1
    84     2     1    1
    85     5     6    1
    86    31    33    1
    87    71    72    1
    88    71    73    1
    89     6     7   ar
    90     6     8   ar
    91     7     9   ar
    92    96    94    1
    93     8    10   ar
    94   104   102    1
    95    95    93    1
    96    20    18    1
    97     9    11   ar
    98   137   138   ar
    99   137   135   ar
   100    94    93    1
   101   138   136   ar
   102    10    11   ar
   103   103   101    1
   104   135   133   ar
   105   118   117    1
   106   102   101    1
   107    93    90    1
   108    11    12    1
   109   101    98    1
   110   136   134   ar
   111    19    18    1
   112    18    17    1
   113   133   134   ar
   114   133   132    1
   115   119   117    1
   116    88    87    1
   117   117   116    1
   118    17    14    1
   119   132   129    1
   120    90    91    1
   121    90    89    1
   122   127   126    1
   123    98    97    1
   124    98    99    1
   125    91    92    2
   126    87    84    1
   127   116   113    1
   128   126   125    1
   129   108   107    2
   130    99   105   am
   131    99   100    2
   132    14    13    1
   133    14    15    1
   134   129   130    1
   135   129   128    1
   136   105   106    1
   137   131   130    2
   138    15    16    2
   139   107   112   am
   140   107   106    1
   141   113   112    1
   142   113   114    1
   143   125   124    1
   144    84    85    1
   145    84    83    1
   146   106   109    1
   147    85    86    2
   148   124   121    1
   149   114   115    2
   150   123   122    2
   151   109   110    1
   152   109   111    1
   153   122   121    1
   154   121   120    1
