@<TRIPOS>MOLECULE
tmp/2z64A03.pdb
 80 80 0 0 0
SMALL
GASTEIGER

@<TRIPOS>ATOM
      1  N        -32.2020   26.4260   21.0420 N.3    23  ASP23      -0.1225
      2  CA       -32.2260   27.8200   20.6030 C.3    23  ASP23       0.1805
      3  C        -30.8310   28.4250   20.4570 C.2    23  ASP23       0.2598
      4  O        -30.6680   29.4570   19.7990 O.2    23  ASP23      -0.2718
      5  CB       -33.0610   28.6480   21.5790 C.3    23  ASP23       0.1424
      6  CG       -32.8220   28.2470   23.0210 C.2    23  ASP23       0.3668
      7  OD1      -31.6520   28.2570   23.4580 O.co2  23  ASP23      -0.2456
      8  OD2      -33.8010   27.9020   23.7140 O.co2  23  ASP23      -0.2456
      9  N        -29.8320   27.7880   21.0660 N.am   24  ASP24      -0.1960
     10  CA       -28.4620   28.3050   21.0120 C.3    24  ASP24       0.1840
     11  C        -27.5030   27.4430   20.1770 C.2    24  ASP24       0.2622
     12  O        -26.2910   27.4320   20.4110 O.2    24  ASP24      -0.2715
     13  CB       -27.9170   28.5420   22.4230 C.3    24  ASP24       0.1450
     14  CG       -27.8200   27.2650   23.2400 C.2    24  ASP24       0.3671
     15  OD1      -28.0100   26.1520   22.6880 O.co2  24  ASP24      -0.2456
     16  OD2      -27.5380   27.3810   24.4490 O.co2  24  ASP24      -0.2456
     17  N        -28.0640   26.7250   19.2080 N.am   25  ILE25      -0.1964
     18  CA       -27.2770   26.0130   18.2070 C.3    25  ILE25       0.1712
     19  C        -26.9250   26.9930   17.0890 C.2    25  ILE25       0.2458
     20  O        -27.8070   27.6640   16.5670 O.2    25  ILE25      -0.2730
     21  CB       -28.0450   24.7860   17.6420 C.3    25  ILE25       0.0289
     22  CG1      -28.3460   23.7760   18.7600 C.3    25  ILE25       0.0022
     23  CG2      -27.2610   24.1240   16.5120 C.3    25  ILE25       0.0023
     24  CD1      -28.8850   22.4370   18.2950 C.3    25  ILE25       0.0001
     25  N        -25.6280   27.0980   16.7360 N.am   26  PRO26      -0.2716
     26  CA       -25.1790   28.0030   15.6650 C.3    26  PRO26       0.1536
     27  C        -26.0590   28.0330   14.3940 C.2    26  PRO26       0.2599
     28  O        -26.8250   27.0980   14.1180 O.2    26  PRO26      -0.2715
     29  CB       -23.7760   27.4770   15.3270 C.3    26  PRO26       0.0310
     30  CG       -23.2940   26.8490   16.5710 C.3    26  PRO26       0.0237
     31  CD       -24.4940   26.3810   17.3560 C.3    26  PRO26       0.0939
     32  N        -25.9370   29.1150   13.6350 N.am   27  SER27      -0.1950
     33  CA       -26.6270   29.2400   12.3700 C.3    27  SER27       0.1924
     34  C        -25.7320   28.7440   11.2480 C.2    27  SER27       0.2314
     35  O        -26.1320   28.7260   10.0730 O.2    27  SER27      -0.2863
     36  CB       -27.0020   30.6930   12.1220 C.3    27  SER27       0.2116
     37  OG       -27.6810   30.8240   10.8870 O.3    27  SER27      -0.2180
     38  N        -42.0480   28.2070   11.4820 N.3    45  TYR45      -0.1227
     39  CA       -40.7850   28.9740   11.6240 C.3    45  TYR45       0.1736
     40  C        -39.8480   28.4490   12.7200 C.2    45  TYR45       0.2596
     41  O        -39.1580   29.2260   13.3710 O.2    45  TYR45      -0.2718
     42  CB       -41.0330   30.4820   11.7850 C.3    45  TYR45       0.0548
     43  CG       -41.7090   31.1170   10.5890 C.ar   45  TYR45      -0.0200
     44  CD1      -43.0360   30.8150   10.2760 C.ar   45  TYR45      -0.0009
     45  CD2      -41.0350   32.0250    9.7740 C.ar   45  TYR45      -0.0009
     46  CE1      -43.6720   31.3850    9.1820 C.ar   45  TYR45       0.0417
     47  CE2      -41.6710   32.6060    8.6670 C.ar   45  TYR45       0.0417
     48  CZ       -42.9910   32.2760    8.3830 C.ar   45  TYR45       0.1957
     49  OH       -43.6510   32.8290    7.3060 O.3    45  TYR45      -0.2866
     50  N        -39.8250   27.1250   12.8910 N.am   46  SER46      -0.1952
     51  CA       -38.9330   26.4460   13.8360 C.3    46  SER46       0.1924
     52  C        -37.4640   26.6210   13.4410 C.2    46  SER46       0.2314
     53  O        -36.6480   27.0890   14.2360 O.2    46  SER46      -0.2863
     54  CB       -39.2470   24.9460   13.8900 C.3    46  SER46       0.2116
     55  OG       -40.6330   24.6900   13.9940 O.3    46  SER46      -0.2180
     56  N        -36.0760   28.5270   11.2170 N.3    48  SER48      -0.1202
     57  CA       -35.9300   29.7900   10.5180 C.3    48  SER48       0.2020
     58  C        -34.4640   30.2190   10.3630 C.2    48  SER48       0.2619
     59  O        -34.0480   30.6000    9.2750 O.2    48  SER48      -0.2717
     60  CB       -36.7340   30.8680   11.2490 C.3    48  SER48       0.2103
     61  OG       -36.7680   32.0730   10.5010 O.3    48  SER48      -0.2182
     62  N        -33.6910   30.1270   11.4490 N.am   49  ASN49      -0.1960
     63  CA       -32.3180   30.6450   11.5120 C.3    49  ASN49       0.1819
     64  C        -31.3000   29.7810   10.7770 C.2    49  ASN49       0.2621
     65  O        -30.2350   30.2630   10.4060 O.2    49  ASN49      -0.2715
     66  CB       -31.8650   30.7930   12.9770 C.3    49  ASN49       0.1195
     67  CG       -32.7960   31.6790   13.8060 C.2    49  ASN49       0.2630
     68  OD1      -34.0160   31.6720   13.6190 O.2    49  ASN49      -0.2716
     69  ND2      -32.2170   32.4480   14.7280 N.am   49  ASN49      -0.0877
     70  N        -31.6270   28.5040   10.5890 N.am   50  PHE50      -0.1974
     71  CA       -30.6880   27.5150   10.0470 C.3    50  PHE50       0.1639
     72  C        -30.6150   27.5310    8.5180 C.2    50  PHE50       0.2290
     73  O        -31.0890   26.6010    7.8500 O.2    50  PHE50      -0.2864
     74  CB       -31.0470   26.1190   10.5640 C.3    50  PHE50       0.0560
     75  CG       -31.2110   26.0530   12.0500 C.ar   50  PHE50      -0.0200
     76  CD1      -30.2350   26.5630   12.9000 C.ar   50  PHE50      -0.0042
     77  CD2      -32.3390   25.4780   12.6120 C.ar   50  PHE50      -0.0042
     78  CE1      -30.3860   26.5050   14.2960 C.ar   50  PHE50      -0.0003
     79  CE2      -32.5000   25.4070   14.0110 C.ar   50  PHE50      -0.0003
     80  CZ       -31.5200   25.9220   14.8500 C.ar   50  PHE50      -0.0000
@<TRIPOS>BOND
     1    49    48    1
     2    73    72    2
     3    48    47   ar
     4    48    46   ar
     5    72    71    1
     6    47    45   ar
     7    46    44   ar
     8    59    58    2
     9    45    43   ar
    10    71    74    1
    11    71    70    1
    12    35    34    2
    13    44    43   ar
    14    58    57    1
    15    58    62   am
    16    65    64    2
    17    61    60    1
    18    57    56    1
    19    57    60    1
    20    74    75    1
    21    43    42    1
    22    70    64   am
    23    64    63    1
    24    37    36    1
    25    34    33    1
    26    62    63    1
    27    38    39    1
    28    63    66    1
    29    39    42    1
    30    39    40    1
    31    75    77   ar
    32    75    76   ar
    33    36    33    1
    34    33    32    1
    35    77    79   ar
    36    40    50   am
    37    40    41    2
    38    50    51    1
    39    76    78   ar
    40    66    67    1
    41    52    51    1
    42    52    53    2
    43    68    67    2
    44    32    27   am
    45    67    69   am
    46    51    54    1
    47    54    55    1
    48    79    80   ar
    49    28    27    2
    50    78    80   ar
    51    27    26    1
    52    29    26    1
    53    29    30    1
    54    26    25    1
    55    23    21    1
    56    20    19    2
    57    30    31    1
    58    25    19   am
    59    25    31    1
    60    19    18    1
    61    21    18    1
    62    21    22    1
    63    18    17    1
    64    24    22    1
    65    17    11   am
    66     4     3    2
    67    11    12    2
    68    11    10    1
    69     3     2    1
    70     3     9   am
    71     2     1    1
    72     2     5    1
    73    10     9    1
    74    10    13    1
    75     5     6    1
    76    13    14    1
    77    15    14   ar
    78     6     7   ar
    79     6     8   ar
    80    14    16   ar
