@<TRIPOS>MOLECULE
tmp/2z64A01.pdb
 98 91 0 0 0
SMALL
GASTEIGER

@<TRIPOS>ATOM
      1  N          1.2420   -8.0910    4.0780 N.3   428  TYR428     -0.1241
      2  CA         0.9000   -9.0330    5.1450 C.3   428  TYR428      0.1605
      3  C          0.6740  -10.4440    4.6000 C.2   428  TYR428      0.2264
      4  O         -0.1900  -11.1830    5.0810 O.2   428  TYR428     -0.2867
      5  CB        -0.3250   -8.5510    5.9450 C.3   428  TYR428      0.0534
      6  CG        -0.1920   -7.1560    6.5260 C.ar  428  TYR428     -0.0201
      7  CD1       -0.6030   -6.0320    5.8090 C.ar  428  TYR428     -0.0009
      8  CD2        0.3350   -6.9620    7.7950 C.ar  428  TYR428     -0.0009
      9  CE1       -0.4810   -4.7500    6.3460 C.ar  428  TYR428      0.0417
     10  CE2        0.4600   -5.6860    8.3350 C.ar  428  TYR428      0.0417
     11  CZ         0.0510   -4.5930    7.6100 C.ar  428  TYR428      0.1957
     12  OH         0.1810   -3.3490    8.1610 O.3   428  TYR428     -0.2866
     13  N          3.5880   -4.2050    2.9790 N.3   451  ALA451     -0.1245
     14  CA         3.7710   -3.9010    4.3860 C.3   451  ALA451      0.1562
     15  C          3.5690   -5.0930    5.3090 C.2   451  ALA451      0.2260
     16  O          2.8690   -6.0410    4.9580 O.2   451  ALA451     -0.2867
     17  CB         2.8550   -2.7800    4.7830 C.3   451  ALA451      0.0290
     18  N          5.0330    4.8660   -5.6640 N.3   472  PHE472     -0.1241
     19  CA         4.5150    4.5950   -4.3360 C.3   472  PHE472      0.1605
     20  C          5.1700    3.3160   -3.8590 C.2   472  PHE472      0.2264
     21  O          5.0530    2.2930   -4.5280 O.2   472  PHE472     -0.2867
     22  CB         2.9970    4.3890   -4.3970 C.3   472  PHE472      0.0534
     23  CG         2.3540    4.2290   -3.0570 C.ar  472  PHE472     -0.0203
     24  CD1        1.6910    5.2920   -2.4640 C.ar  472  PHE472     -0.0042
     25  CD2        2.4140    3.0180   -2.3800 C.ar  472  PHE472     -0.0042
     26  CE1        1.0910    5.1530   -1.2090 C.ar  472  PHE472     -0.0003
     27  CE2        1.8240    2.8630   -1.1200 C.ar  472  PHE472     -0.0003
     28  CZ         1.1650    3.9360   -0.5350 C.ar  472  PHE472     -0.0000
     29  N          5.7460    0.9730   -0.1480 N.3   474  ASP474     -0.1239
     30  CA         5.3150    0.8800    1.2570 C.3   474  ASP474      0.1674
     31  C          5.9660   -0.2550    2.0730 C.2   474  ASP474      0.2266
     32  O          5.5170   -1.4110    2.0330 O.2   474  ASP474     -0.2867
     33  CB         3.7840    0.7930    1.3220 C.3   474  ASP474      0.1410
     34  CG         3.2540    0.7200    2.7380 C.2   474  ASP474      0.3668
     35  OD1        3.9500    0.1920    3.6230 O.co2 474  ASP474     -0.2456
     36  OD2        2.1180    1.1760    2.9720 O.co2 474  ASP474     -0.2456
     37  N          6.0920   -0.2570    5.4330 N.3   476  SER476     -0.1202
     38  CA         5.6580    0.0000    6.7850 C.3   476  SER476      0.2020
     39  C          5.5200   -1.3010    7.5610 C.2   476  SER476      0.2618
     40  O          5.1210   -2.3100    6.9930 O.2   476  SER476     -0.2717
     41  CB         4.3300    0.7590    6.7800 C.3   476  SER476      0.2103
     42  OG         3.2420   -0.1130    6.5470 O.3   476  SER476     -0.2182
     43  N          5.8640   -1.2700    8.8500 N.am  477  LYS477     -0.1979
     44  CA         5.6530   -2.3970    9.7730 C.3   477  LYS477      0.1596
     45  C          6.5230   -3.6280    9.4990 C.2   477  LYS477      0.2287
     46  O          6.1500   -4.7460    9.8810 O.2   477  LYS477     -0.2864
     47  CB         4.1890   -2.8280    9.7760 C.3   477  LYS477      0.0298
     48  CG         3.2290   -1.9420   10.5420 C.3   477  LYS477      0.0038
     49  CD         1.8930   -2.6640   10.6240 C.3   477  LYS477      0.0206
     50  CE         0.8040   -1.8710   11.2950 C.3   477  LYS477      0.1093
     51  NZ        -0.4030   -2.7520   11.4120 N.3   477  LYS477     -0.1314
     52  N          6.4830    8.6610   -3.0950 N.3   496  LEU496     -0.1245
     53  CA         6.0580    8.3420   -1.7610 C.3   496  LEU496      0.1561
     54  C          6.7470    7.0800   -1.2750 C.2   496  LEU496      0.2260
     55  O          6.7590    6.0410   -1.9560 O.2   496  LEU496     -0.2867
     56  CB         4.5360    8.1900   -1.7400 C.3   496  LEU496      0.0270
     57  CG         3.7460    7.6310   -0.5530 C.3   496  LEU496      0.0019
     58  CD1        4.2580    6.2690   -0.0410 C.3   496  LEU496      0.0001
     59  CD2        3.6230    8.6050    0.5710 C.3   496  LEU496      0.0001
     60  N          7.0020    4.8440    2.4260 N.3   498  ASN498     -0.1240
     61  CA         6.6000    4.5840    3.8110 C.3   498  ASN498      0.1653
     62  C          7.4720    3.5400    4.5210 C.2   498  ASN498      0.2266
     63  O          7.4020    2.3410    4.2400 O.2   498  ASN498     -0.2867
     64  CB         5.1280    4.1640    3.8710 C.3   498  ASN498      0.1155
     65  CG         4.4990    4.3810    5.2490 C.2   498  ASN498      0.2627
     66  OD1        5.0900    4.0690    6.2900 O.2   498  ASN498     -0.2716
     67  ND2        3.2710    4.9220    5.2400 N.am  498  ASN498     -0.0877
     68  N          7.3050    3.4750    7.9970 N.3   500  SER500     -0.1202
     69  CA         6.8010    3.6710    9.3410 C.3   500  SER500      0.2020
     70  C          6.7360    2.3510   10.0940 C.2   500  SER500      0.2618
     71  O          6.7110    1.2870    9.4710 O.2   500  SER500     -0.2717
     72  CB         5.4330    4.3730    9.3150 C.3   500  SER500      0.2103
     73  OG         4.3840    3.4750    9.0210 O.3   500  SER500     -0.2182
     74  N          6.7200    2.4460   11.4330 N.am  501  HIS501     -0.1975
     75  CA         6.6180    1.3130   12.3730 C.3   501  HIS501      0.1656
     76  C          7.6940    0.2670   12.1570 C.2   501  HIS501      0.2291
     77  O          7.4000   -0.9040   11.9480 O.2   501  HIS501     -0.2864
     78  CB         5.2370    0.6480   12.3280 C.3   501  HIS501      0.0771
     79  CG         4.1200    1.5230   12.8000 C.ar  501  HIS501      0.0820
     80  ND1        3.5280    2.4760   11.9960 N.ar  501  HIS501     -0.2267
     81  CD2        3.4630    1.5670   13.9830 C.ar  501  HIS501      0.1154
     82  CE1        2.5680    3.0850   12.6710 C.ar  501  HIS501      0.1986
     83  NE2        2.5110    2.5530   13.8810 N.ar  501  HIS501     -0.2212
     84  N          6.9850   12.5570   -0.0430 N.3   520  THR520     -0.1218
     85  CA         6.6840   12.1220    1.3040 C.3   520  THR520      0.1862
     86  C          7.5890   10.9760    1.7150 C.2   520  THR520      0.2287
     87  O          7.7250    9.9830    1.0040 O.2   520  THR520     -0.2866
     88  CB         5.2050   11.7580    1.4830 C.3   520  THR520      0.1770
     89  OG1        4.4140   12.9210    1.2650 O.3   520  THR520     -0.2211
     90  CG2        4.9330   11.3060    2.8960 C.3   520  THR520      0.0375
     91  N          7.8080    8.9390    5.1430 N.3   522  ASP522     -0.1239
     92  CA         7.2630    8.7050    6.4710 C.3   522  ASP522      0.1674
     93  C          8.1930    7.8020    7.2580 C.2   522  ASP522      0.2266
     94  O          8.3890    6.6380    6.9170 O.2   522  ASP522     -0.2867
     95  CB         5.8560    8.0990    6.3970 C.3   522  ASP522      0.1410
     96  CG         5.2050    7.9300    7.7780 C.2   522  ASP522      0.3668
     97  OD1        4.0710    7.4170    7.8330 O.co2 522  ASP522     -0.2456
     98  OD2        5.8050    8.3080    8.8090 O.co2 522  ASP522     -0.2456
@<TRIPOS>BOND
     1    18    19    1
     2    21    20    2
     3    22    19    1
     4    22    23    1
     5    19    20    1
     6    52    53    1
     7    23    24   ar
     8    23    25   ar
     9    24    26   ar
    10    25    27   ar
    11    55    54    2
    12    53    56    1
    13    53    54    1
    14    56    57    1
    15    26    28   ar
    16    27    28   ar
    17    57    58    1
    18    57    59    1
    19    29    30    1
    20    84    85    1
    21    87    86    2
    22    30    33    1
    23    30    31    1
    24    89    88    1
    25    85    88    1
    26    85    86    1
    27    33    34    1
    28    88    90    1
    29    32    31    2
    30    60    61    1
    31    34    36   ar
    32    34    35   ar
    33    13    14    1
    34    61    64    1
    35    61    62    1
    36    64    65    1
    37     1     2    1
    38    63    62    2
    39    14    17    1
    40    14    15    1
    41     3     4    2
    42     3     2    1
    43    16    15    2
    44    91    92    1
    45     2     5    1
    46    67    65   am
    47    65    66    2
    48    37    38    1
    49     7     9   ar
    50     7     6   ar
    51     5     6    1
    52     9    11   ar
    53    95    92    1
    54    95    96    1
    55    92    93    1
    56     6     8   ar
    57    42    41    1
    58    41    38    1
    59    38    39    1
    60    94    93    2
    61    40    39    2
    62    39    43   am
    63    11    12    1
    64    11    10   ar
    65    96    97   ar
    66    96    98   ar
    67     8    10   ar
    68    68    69    1
    69    43    44    1
    70    73    72    1
    71    72    69    1
    72    69    70    1
    73    71    70    2
    74    45    44    1
    75    45    46    2
    76    44    47    1
    77    47    48    1
    78    70    74   am
    79    48    49    1
    80    49    50    1
    81    50    51    1
    82    74    75    1
    83    77    76    2
    84    80    82   ar
    85    80    79   ar
    86    76    75    1
    87    78    75    1
    88    78    79    1
    89    82    83   ar
    90    79    81   ar
    91    83    81   ar
