@<TRIPOS>MOLECULE
tmp/2z64A00.pdb
 97 90 0 0 0
SMALL
GASTEIGER

@<TRIPOS>ATOM
      1  N          6.4830    8.6610   -3.0950 N.3   496  LEU496     -0.1245
      2  CA         6.0580    8.3420   -1.7610 C.3   496  LEU496      0.1561
      3  C          6.7470    7.0800   -1.2750 C.2   496  LEU496      0.2260
      4  O          6.7590    6.0410   -1.9560 O.2   496  LEU496     -0.2867
      5  CB         4.5360    8.1900   -1.7400 C.3   496  LEU496      0.0270
      6  CG         3.7460    7.6310   -0.5530 C.3   496  LEU496      0.0019
      7  CD1        4.2580    6.2690   -0.0410 C.3   496  LEU496      0.0001
      8  CD2        3.6230    8.6050    0.5710 C.3   496  LEU496      0.0001
      9  N          7.0020    4.8440    2.4260 N.3   498  ASN498     -0.1240
     10  CA         6.6000    4.5840    3.8110 C.3   498  ASN498      0.1653
     11  C          7.4720    3.5400    4.5210 C.2   498  ASN498      0.2266
     12  O          7.4020    2.3410    4.2400 O.2   498  ASN498     -0.2867
     13  CB         5.1280    4.1640    3.8710 C.3   498  ASN498      0.1155
     14  CG         4.4990    4.3810    5.2490 C.2   498  ASN498      0.2627
     15  OD1        5.0900    4.0690    6.2900 O.2   498  ASN498     -0.2716
     16  ND2        3.2710    4.9220    5.2400 N.am  498  ASN498     -0.0877
     17  N          7.3050    3.4750    7.9970 N.3   500  SER500     -0.1202
     18  CA         6.8010    3.6710    9.3410 C.3   500  SER500      0.2020
     19  C          6.7360    2.3510   10.0940 C.2   500  SER500      0.2618
     20  O          6.7110    1.2870    9.4710 O.2   500  SER500     -0.2717
     21  CB         5.4330    4.3730    9.3150 C.3   500  SER500      0.2103
     22  OG         4.3840    3.4750    9.0210 O.3   500  SER500     -0.2182
     23  N          6.7200    2.4460   11.4330 N.am  501  HIS501     -0.1975
     24  CA         6.6180    1.3130   12.3730 C.3   501  HIS501      0.1656
     25  C          7.6940    0.2670   12.1570 C.2   501  HIS501      0.2291
     26  O          7.4000   -0.9040   11.9480 O.2   501  HIS501     -0.2864
     27  CB         5.2370    0.6480   12.3280 C.3   501  HIS501      0.0771
     28  CG         4.1200    1.5230   12.8000 C.ar  501  HIS501      0.0820
     29  ND1        3.5280    2.4760   11.9960 N.ar  501  HIS501     -0.2267
     30  CD2        3.4630    1.5670   13.9830 C.ar  501  HIS501      0.1154
     31  CE1        2.5680    3.0850   12.6710 C.ar  501  HIS501      0.1986
     32  NE2        2.5110    2.5530   13.8810 N.ar  501  HIS501     -0.2212
     33  N          6.9850   12.5570   -0.0430 N.3   520  THR520     -0.1218
     34  CA         6.6840   12.1220    1.3040 C.3   520  THR520      0.1862
     35  C          7.5890   10.9760    1.7150 C.2   520  THR520      0.2287
     36  O          7.7250    9.9830    1.0040 O.2   520  THR520     -0.2866
     37  CB         5.2050   11.7580    1.4830 C.3   520  THR520      0.1770
     38  OG1        4.4140   12.9210    1.2650 O.3   520  THR520     -0.2211
     39  CG2        4.9330   11.3060    2.8960 C.3   520  THR520      0.0375
     40  N          7.8080    8.9390    5.1430 N.3   522  ASP522     -0.1239
     41  CA         7.2630    8.7050    6.4710 C.3   522  ASP522      0.1674
     42  C          8.1930    7.8020    7.2580 C.2   522  ASP522      0.2266
     43  O          8.3890    6.6380    6.9170 O.2   522  ASP522     -0.2867
     44  CB         5.8560    8.0990    6.3970 C.3   522  ASP522      0.1410
     45  CG         5.2050    7.9300    7.7780 C.2   522  ASP522      0.3668
     46  OD1        4.0710    7.4170    7.8330 O.co2 522  ASP522     -0.2456
     47  OD2        5.8050    8.3080    8.8090 O.co2 522  ASP522     -0.2456
     48  N          7.7620    7.6690   10.7910 N.3   524  SER524     -0.1202
     49  CA         7.1320    7.8060   12.0890 C.3   524  SER524      0.2020
     50  C          7.2260    6.5050   12.8790 C.2   524  SER524      0.2618
     51  O          7.3170    5.4270   12.2850 O.2   524  SER524     -0.2717
     52  CB         5.6730    8.2160   11.9150 C.3   524  SER524      0.2103
     53  OG         4.8810    7.1360   11.4550 O.3   524  SER524     -0.2182
     54  N          7.2080    6.6240   14.2110 N.am  525  PHE525     -0.1975
     55  CA         7.2450    5.4840   15.1180 C.3   525  PHE525      0.1639
     56  C          8.4140    4.5680   14.7460 C.2   525  PHE525      0.2290
     57  O          8.2580    3.6220   13.9770 O.2   525  PHE525     -0.2864
     58  CB         5.9270    4.6920   15.0800 C.3   525  PHE525      0.0560
     59  CG         4.6840    5.5010   15.4000 C.ar  525  PHE525     -0.0200
     60  CD1        4.5070    6.7940   14.9110 C.ar  525  PHE525     -0.0042
     61  CD2        3.6610    4.9300   16.1470 C.ar  525  PHE525     -0.0042
     62  CE1        3.3600    7.5140   15.1920 C.ar  525  PHE525     -0.0003
     63  CE2        2.5070    5.6410   16.4390 C.ar  525  PHE525     -0.0003
     64  CZ         2.3530    6.9300   15.9560 C.ar  525  PHE525     -0.0000
     65  N          7.1850   16.6470    2.7720 N.3   544  PHE544     -0.1241
     66  CA         6.5950   16.1300    3.9800 C.3   544  PHE544      0.1605
     67  C          7.5350   15.0740    4.5130 C.2   544  PHE544      0.2264
     68  O          7.7380   14.0380    3.9010 O.2   544  PHE544     -0.2867
     69  CB         5.1960   15.5790    3.7010 C.3   544  PHE544      0.0534
     70  CG         4.2500   16.5930    3.1070 C.ar  544  PHE544     -0.0203
     71  CD1        4.4640   17.1110    1.8240 C.ar  544  PHE544     -0.0042
     72  CD2        3.1330   17.0190    3.8130 C.ar  544  PHE544     -0.0042
     73  CE1        3.5900   18.0530    1.2600 C.ar  544  PHE544     -0.0003
     74  CE2        2.2380   17.9590    3.2540 C.ar  544  PHE544     -0.0003
     75  CZ         2.4710   18.4750    1.9760 C.ar  544  PHE544     -0.0000
     76  N          8.2030   12.8690    7.9990 N.3   546  ASN546     -0.1240
     77  CA         7.4880   12.4970    9.2030 C.3   546  ASN546      0.1653
     78  C          8.4170   11.7480   10.1270 C.2   546  ASN546      0.2266
     79  O          8.7920   10.6160    9.8440 O.2   546  ASN546     -0.2867
     80  CB         6.2150   11.6750    8.8770 C.3   546  ASN546      0.1155
     81  CG         5.2230   11.5900   10.0690 C.2   546  ASN546      0.2627
     82  OD1        5.6340   11.3260   11.1970 O.2   546  ASN546     -0.2716
     83  ND2        3.9220   11.8410    9.8250 N.am  546  ASN546     -0.0877
     84  N          7.5230   11.7240   13.5930 N.3   548  THR548     -0.1218
     85  CA         6.7460   11.7480   14.8290 C.3   548  THR548      0.1862
     86  C          6.9430   10.4840   15.6600 C.2   548  THR548      0.2287
     87  O          7.3500    9.4510   15.1440 O.2   548  THR548     -0.2866
     88  CB         5.2270   11.9860   14.6000 C.3   548  THR548      0.1770
     89  OG1        4.6170   10.8070   14.0650 O.3   548  THR548     -0.2211
     90  CG2        4.9780   13.1350   13.6860 C.3   548  THR548      0.0375
     91  N          6.6550   17.1170    9.9880 N.3   573  VAL573     -0.1245
     92  CA         5.2670   17.1510   10.4100 C.3   573  VAL573      0.1561
     93  C          5.1570   17.1170   11.9420 C.2   573  VAL573      0.2260
     94  O          5.7320   16.2550   12.6060 O.2   573  VAL573     -0.2867
     95  CB         4.4140   16.0880    9.6810 C.3   573  VAL573      0.0252
     96  CG1        4.8180   14.7300   10.0690 C.3   573  VAL573      0.0019
     97  CG2        2.9340   16.3020    9.9470 C.3   573  VAL573      0.0019
@<TRIPOS>BOND
     1     1     2    1
     2     4     3    2
     3     2     5    1
     4     2     3    1
     5     5     6    1
     6     6     7    1
     7     6     8    1
     8    33    34    1
     9    36    35    2
    10    73    71   ar
    11    73    75   ar
    12    38    37    1
    13    34    37    1
    14    34    35    1
    15    37    39    1
    16    71    70   ar
    17    75    74   ar
    18     9    10    1
    19    65    66    1
    20    70    69    1
    21    70    72   ar
    22    74    72   ar
    23    69    66    1
    24    10    13    1
    25    10    11    1
    26    13    14    1
    27    68    67    2
    28    66    67    1
    29    12    11    2
    30    40    41    1
    31    16    14   am
    32    14    15    2
    33    44    41    1
    34    44    45    1
    35    41    42    1
    36    43    42    2
    37    45    46   ar
    38    45    47   ar
    39    17    18    1
    40    76    77    1
    41    80    77    1
    42    80    81    1
    43    22    21    1
    44    77    78    1
    45    21    18    1
    46    18    19    1
    47    20    19    2
    48    95    97    1
    49    95    96    1
    50    95    92    1
    51    83    81   am
    52    79    78    2
    53    91    92    1
    54    81    82    2
    55    19    23   am
    56    92    93    1
    57    48    49    1
    58    23    24    1
    59    53    52    1
    60    52    49    1
    61    93    94    2
    62    26    25    2
    63    29    31   ar
    64    29    28   ar
    65    49    50    1
    66    25    24    1
    67    51    50    2
    68    27    24    1
    69    27    28    1
    70    31    32   ar
    71    28    30   ar
    72    50    54   am
    73    84    85    1
    74    90    88    1
    75    32    30   ar
    76    57    56    2
    77    89    88    1
    78    54    55    1
    79    88    85    1
    80    56    55    1
    81    85    86    1
    82    60    62   ar
    83    60    59   ar
    84    58    55    1
    85    58    59    1
    86    87    86    2
    87    62    64   ar
    88    59    61   ar
    89    64    63   ar
    90    61    63   ar
