@<TRIPOS>MOLECULE
tmp/2z66C00.pdb
 108 100 0 0 0
SMALL
GASTEIGER

@<TRIPOS>ATOM
      1  N        -31.9030  -28.0240    9.5300 N.3   179  PHE179     -0.1241
      2  CA       -30.7530  -28.8110    9.9750 C.3   179  PHE179      0.1605
      3  C        -30.9420  -30.2630    9.5510 C.2   179  PHE179      0.2264
      4  O        -31.9630  -30.8760    9.8730 O.2   179  PHE179     -0.2867
      5  CB       -30.6200  -28.7150   11.5050 C.3   179  PHE179      0.0534
      6  CG       -29.3220  -29.2570   12.0540 C.ar  179  PHE179     -0.0203
      7  CD1      -28.2730  -28.3950   12.3630 C.ar  179  PHE179     -0.0042
      8  CD2      -29.1590  -30.6190   12.2920 C.ar  179  PHE179     -0.0042
      9  CE1      -27.0680  -28.8820   12.8800 C.ar  179  PHE179     -0.0003
     10  CE2      -27.9570  -31.1180   12.8130 C.ar  179  PHE179     -0.0003
     11  CZ       -26.9090  -30.2440   13.1050 C.ar  179  PHE179     -0.0000
     12  N        -20.6970  -35.7550    6.6970 N.3   207  SER207     -0.1217
     13  CA       -19.3980  -36.2190    7.1910 C.3   207  SER207      0.1889
     14  C        -19.3210  -37.7340    7.3170 C.2   207  SER207      0.2288
     15  O        -20.2960  -38.3770    7.6760 O.2   207  SER207     -0.2866
     16  CB       -19.0800  -35.5850    8.5470 C.3   207  SER207      0.2089
     17  OG       -17.8420  -36.0560    9.0490 O.3   207  SER207     -0.2183
     18  N        -23.5130  -24.0660    6.2400 N.3   227  VAL227     -0.1245
     19  CA       -22.4740  -25.0380    6.5990 C.3   227  VAL227      0.1561
     20  C        -22.6740  -26.3420    5.8260 C.2   227  VAL227      0.2260
     21  O        -23.7460  -26.9360    5.8840 O.2   227  VAL227     -0.2867
     22  CB       -22.4750  -25.3440    8.1340 C.3   227  VAL227      0.0252
     23  CG1      -21.4130  -26.3760    8.4930 C.3   227  VAL227      0.0019
     24  CG2      -22.2610  -24.0690    8.9490 C.3   227  VAL227      0.0019
     25  N        -20.7470  -29.9810    5.5820 N.3   229  ASP229     -0.1239
     26  CA       -19.7090  -30.8260    6.1610 C.3   229  ASP229      0.1674
     27  C        -19.4940  -32.0850    5.3220 C.2   229  ASP229      0.2266
     28  O        -20.3130  -33.0120    5.3410 O.2   229  ASP229     -0.2867
     29  CB       -20.0570  -31.1840    7.6150 C.3   229  ASP229      0.1410
     30  CG       -18.8660  -31.7170    8.3970 C.2   229  ASP229      0.3668
     31  OD1      -18.9690  -31.7820    9.6340 O.co2 229  ASP229     -0.2456
     32  OD2      -17.8290  -32.0660    7.7920 O.co2 229  ASP229     -0.2456
     33  N        -16.3110  -33.6110    5.5280 N.3   231  SER231     -0.1202
     34  CA       -15.1310  -34.2250    6.1470 C.3   231  SER231      0.2020
     35  C        -15.2330  -35.7490    6.1470 C.2   231  SER231      0.2618
     36  O        -16.3330  -36.3020    6.0780 O.2   231  SER231     -0.2717
     37  CB       -14.9650  -33.7230    7.5810 C.3   231  SER231      0.2103
     38  OG       -16.1410  -33.9540    8.3340 O.3   231  SER231     -0.2182
     39  N        -14.0810  -36.4160    6.1960 N.am  232  LEU232     -0.1979
     40  CA       -14.0140  -37.8640    6.4400 C.3   232  LEU232      0.1596
     41  C        -14.6670  -38.7480    5.3630 C.2   232  LEU232      0.2287
     42  O        -15.0940  -39.8720    5.6430 O.2   232  LEU232     -0.2864
     43  CB       -14.5360  -38.2090    7.8470 C.3   232  LEU232      0.0297
     44  CG       -13.6170  -37.8480    9.0250 C.3   232  LEU232      0.0022
     45  CD1      -14.3970  -37.7390   10.3250 C.3   232  LEU232      0.0001
     46  CD2      -12.4810  -38.8580    9.1590 C.3   232  LEU232      0.0001
     47  N        -19.1250  -22.0350    5.3710 N.3   252  PHE252     -0.1241
     48  CA       -18.1610  -23.0580    5.7640 C.3   252  PHE252      0.1605
     49  C        -18.3300  -24.3160    4.9280 C.2   252  PHE252      0.2264
     50  O        -19.4360  -24.8530    4.8100 O.2   252  PHE252     -0.2867
     51  CB       -18.3150  -23.4110    7.2470 C.3   252  PHE252      0.0534
     52  CG       -18.1200  -22.2460    8.1760 C.ar  252  PHE252     -0.0203
     53  CD1      -19.2150  -21.5090    8.6270 C.ar  252  PHE252     -0.0042
     54  CD2      -16.8450  -21.8820    8.6020 C.ar  252  PHE252     -0.0042
     55  CE1      -19.0450  -20.4230    9.4840 C.ar  252  PHE252     -0.0003
     56  CE2      -16.6650  -20.8020    9.4660 C.ar  252  PHE252     -0.0003
     57  CZ       -17.7690  -20.0700    9.9060 C.ar  252  PHE252     -0.0000
     58  N        -16.4260  -27.9550    5.0160 N.3   254  ASN254     -0.1240
     59  CA       -15.4530  -28.8160    5.6850 C.3   254  ASN254      0.1653
     60  C        -15.0620  -29.9880    4.7920 C.2   254  ASN254      0.2266
     61  O        -15.8880  -30.8580    4.5100 O.2   254  ASN254     -0.2867
     62  CB       -15.9700  -29.3060    7.0560 C.3   254  ASN254      0.1155
     63  CG       -14.8520  -29.8870    7.9330 C.2   254  ASN254      0.2627
     64  OD1      -13.8140  -30.2900    7.4030 O.2   254  ASN254     -0.2716
     65  ND2      -15.0460  -29.9400    9.2660 N.am  254  ASN254     -0.0877
     66  N        -11.9240  -31.6170    5.4740 N.3   256  THR256     -0.1203
     67  CA       -10.8190  -32.2470    6.1990 C.3   256  THR256      0.1994
     68  C        -10.9080  -33.7710    6.1410 C.2   256  THR256      0.2617
     69  O        -12.0020  -34.3350    6.0280 O.2   256  THR256     -0.2717
     70  CB       -10.7310  -31.7770    7.6820 C.3   256  THR256      0.1784
     71  OG1      -11.9370  -32.1090    8.3830 O.3   256  THR256     -0.2211
     72  CG2      -10.5030  -30.2800    7.7570 C.3   256  THR256      0.0376
     73  N         -9.7470  -34.4270    6.1860 N.am  257  GLN257     -0.1979
     74  CA        -9.6730  -35.8830    6.3080 C.3   257  GLN257      0.1601
     75  C        -10.3700  -36.6200    5.1620 C.2   257  GLN257      0.2287
     76  O        -11.0460  -37.6260    5.3730 O.2   257  GLN257     -0.2864
     77  CB       -10.2130  -36.3400    7.6680 C.3   257  GLN257      0.0394
     78  CG        -9.4580  -35.7700    8.8620 C.3   257  GLN257      0.0908
     79  CD        -9.7920  -36.4960   10.1460 C.2   257  GLN257      0.2608
     80  OE1       -9.1950  -37.5270   10.4660 O.2   257  GLN257     -0.2717
     81  NE2      -10.7480  -35.9610   10.8920 N.am  257  GLN257     -0.0878
     82  N        -12.2040  -25.0600    6.0010 N.3   281  VAL281     -0.1231
     83  CA       -11.8390  -25.0520    7.4170 C.3   281  VAL281      0.1692
     84  C        -10.6490  -25.9750    7.6820 C.2   281  VAL281      0.2591
     85  O        -10.5270  -27.0340    7.0620 O.2   281  VAL281     -0.2718
     86  CB       -13.0310  -25.4360    8.3460 C.3   281  VAL281      0.0266
     87  CG1      -14.2190  -24.5050    8.1280 C.3   281  VAL281      0.0020
     88  CG2      -13.4470  -26.8720    8.1410 C.3   281  VAL281      0.0020
     89  N         -9.7820  -25.5510    8.6020 N.am  282  GLU282     -0.1979
     90  CA        -8.6090  -26.3200    9.0240 C.3   282  GLU282      0.1602
     91  C         -7.8920  -26.9470    7.8370 C.2   282  GLU282      0.2287
     92  O         -7.7760  -28.1710    7.7510 O.2   282  GLU282     -0.2864
     93  CB        -9.0080  -27.4030   10.0310 C.3   282  GLU282      0.0415
     94  CG        -9.6690  -26.8680   11.2890 C.3   282  GLU282      0.1163
     95  CD       -10.1910  -27.9640   12.1940 C.2   282  GLU282      0.3649
     96  OE1      -10.7980  -28.9340   11.6840 O.co2 282  GLU282     -0.2457
     97  OE2      -10.0040  -27.8490   13.4240 O.co2 282  GLU282     -0.2457
     98  N         -5.5110  -29.9260    7.6310 N.3   285  ARG285     -0.1245
     99  CA        -6.0490  -31.2770    7.7720 C.3   285  ARG285      0.1563
    100  C         -6.6710  -31.7960    6.4760 C.2   285  ARG285      0.2260
    101  O         -7.3530  -32.8250    6.4790 O.2   285  ARG285     -0.2867
    102  CB        -7.0650  -31.3280    8.9180 C.3   285  ARG285      0.0307
    103  CG        -6.4480  -31.1610   10.3020 C.3   285  ARG285      0.0489
    104  CD        -7.5110  -30.9110   11.3600 C.3   285  ARG285      0.2205
    105  NE        -8.3610  -32.0840   11.5790 N.pl3 285  ARG285     -0.0865
    106  CZ        -9.4090  -32.1150   12.4010 C.cat 285  ARG285      0.5346
    107  NH1       -9.7560  -31.0400   13.0980 N.pl3 285  ARG285      0.1354
    108  NH2      -10.1140  -33.2310   12.5290 N.pl3 285  ARG285      0.1354
@<TRIPOS>BOND
     1    61    60    2
     2    60    59    1
     3    50    49    2
     4    49    48    1
     5    58    59    1
     6    75    76    2
     7    75    74    1
     8    27    28    2
     9    27    26    1
    10    41    42    2
    11    41    40    1
    12    47    48    1
    13    66    67    1
    14    33    34    1
    15    25    26    1
    16    59    62    1
    17    48    51    1
    18    20    21    2
    19    20    19    1
    20    82    83    1
    21    69    68    2
    22    36    35    2
    23    68    73   am
    24    68    67    1
    25    35    34    1
    26    35    39   am
    27    34    37    1
    28    26    29    1
    29    73    74    1
    30    39    40    1
    31    67    70    1
    32    18    19    1
    33    74    77    1
    34    40    43    1
    35   100   101    2
    36   100    99    1
    37    19    22    1
    38    12    13    1
    39    62    63    1
    40    85    84    2
    41    13    14    1
    42    13    16    1
    43    51    52    1
    44    14    15    2
    45    64    63    2
    46    83    84    1
    47    83    86    1
    48    37    38    1
    49    29    30    1
    50    98    99    1
    51    77    78    1
    52    70    72    1
    53    70    71    1
    54    84    89   am
    55    92    91    2
    56    99   102    1
    57    32    30   ar
    58    91    90    1
    59    43    44    1
    60    63    65   am
    61    87    86    1
    62    22    23    1
    63    22    24    1
    64    88    86    1
    65    52    54   ar
    66    52    53   ar
    67    30    31   ar
    68    16    17    1
    69    89    90    1
    70    54    56   ar
    71    53    55   ar
    72    78    79    1
    73   102   103    1
    74    90    93    1
    75    44    46    1
    76    44    45    1
    77    56    57   ar
    78    55    57   ar
    79     1     2    1
    80     3     4    2
    81     3     2    1
    82     2     5    1
    83    93    94    1
    84    79    80    2
    85    79    81   am
    86   103   104    1
    87    94    95    1
    88   104   105    1
    89     5     6    1
    90   105   106    2
    91    96    95   ar
    92     6     8   ar
    93     6     7   ar
    94    95    97   ar
    95     8    10   ar
    96     7     9   ar
    97   106   108    1
    98   106   107    1
    99    10    11   ar
   100     9    11   ar
