@<TRIPOS>MOLECULE
tmp/2z67A00.pdb
 148 142 0 0 0
SMALL
GASTEIGER

@<TRIPOS>ATOM
      1  N          4.0410   72.6120  109.0960 N.3   133  SER133     -0.1202
      2  CA         5.1980   73.2940  109.6770 C.3   133  SER133      0.2020
      3  C          5.7130   72.6880  110.9650 C.2   133  SER133      0.2619
      4  O          4.9700   72.0410  111.6970 O.2   133  SER133     -0.2717
      5  CB         4.8630   74.7760  109.9400 C.3   133  SER133      0.2103
      6  OG         3.9730   74.9490  111.0400 O.3   133  SER133     -0.2182
      7  N          6.9910   72.9140  111.2480 N.am  134  THR134     -0.1938
      8  CA         7.5690   72.3990  112.4780 C.3   134  THR134      0.2028
      9  C          6.7820   72.9400  113.6680 C.2   134  THR134      0.2642
     10  O          6.5470   72.2260  114.6440 O.2   134  THR134     -0.2714
     11  CB         9.0830   72.7700  112.6070 C.3   134  THR134      0.1808
     12  OG1        9.4650   72.8560  113.9900 O.3   134  THR134     -0.2208
     13  CG2        9.3760   74.0460  111.9110 C.3   134  THR134      0.0379
     14  N          6.3650   74.1980  113.5780 N.am  135  GLY135     -0.1954
     15  CA         5.5920   74.7850  114.6570 C.3   135  GLY135      0.1869
     16  C          4.2800   74.0400  114.8380 C.2   135  GLY135      0.2309
     17  O          3.9350   73.6510  115.9500 O.2   135  GLY135     -0.2863
     18  N          4.8720   70.9370  116.4050 N.3   137  ILE137     -0.1245
     19  CA         5.1000   71.0000  117.8410 C.3   137  ILE137      0.1561
     20  C          3.7350   70.9700  118.5400 C.2   137  ILE137      0.2260
     21  O          3.5920   70.3680  119.6050 O.2   137  ILE137     -0.2867
     22  CB         5.8730   72.2850  118.2470 C.3   137  ILE137      0.0252
     23  CG1        7.3410   72.1640  117.8340 C.3   137  ILE137      0.0019
     24  CG2        5.7990   72.4970  119.7360 C.3   137  ILE137      0.0019
     25  CD1        8.1570   73.4070  118.1140 C.3   137  ILE137      0.0001
     26  N         10.6410   82.8890  119.4010 N.3   160  HIS160     -0.1241
     27  CA        10.4190   82.6640  117.9800 C.3   160  HIS160      0.1621
     28  C          8.8960   82.5540  117.8770 C.2   160  HIS160      0.2264
     29  O          8.2700   81.7930  118.6080 O.2   160  HIS160     -0.2867
     30  CB        11.1000   81.3800  117.5220 C.3   160  HIS160      0.0745
     31  CG        11.0470   81.1760  116.0470 C.ar  160  HIS160      0.0817
     32  ND1        9.8820   80.8540  115.3830 N.ar  160  HIS160     -0.2268
     33  CD2       12.0000   81.3140  115.0940 C.ar  160  HIS160      0.1154
     34  CE1       10.1190   80.8070  114.0850 C.ar  160  HIS160      0.1986
     35  NE2       11.3960   81.0820  113.8820 N.ar  160  HIS160     -0.2212
     36  N          6.9200   81.0730  115.9330 N.3   162  SER162     -0.1203
     37  CA         6.4030   79.7370  115.6400 C.3   162  SER162      0.2005
     38  C          6.1180   78.8500  116.8660 C.2   162  SER162      0.2460
     39  O          4.9650   78.5300  117.1400 O.2   162  SER162     -0.2732
     40  CB         7.3420   79.0210  114.6630 C.3   162  SER162      0.2103
     41  OG         6.8110   77.7670  114.2800 O.3   162  SER162     -0.2182
     42  N          7.1510   78.4340  117.6140 N.am  163  PRO163     -0.2728
     43  CA         6.8530   77.5900  118.7770 C.3   163  PRO163      0.1401
     44  C          5.9490   78.2750  119.8040 C.2   163  PRO163      0.2269
     45  O          5.1460   77.6180  120.4750 O.2   163  PRO163     -0.2865
     46  CB         8.2370   77.2720  119.3450 C.3   163  PRO163      0.0296
     47  CG         9.0310   78.4880  118.9700 C.3   163  PRO163      0.0237
     48  CD         8.5870   78.7380  117.5380 C.3   163  PRO163      0.0939
     49  N         14.2420   73.9640  123.9030 N.3   210  THR210     -0.1218
     50  CA        14.6870   74.3630  122.5750 C.3   210  THR210      0.1862
     51  C         16.1590   74.0760  122.3720 C.2   210  THR210      0.2287
     52  O         17.0100   74.6560  123.0360 O.2   210  THR210     -0.2866
     53  CB        14.4390   75.8560  122.3450 C.3   210  THR210      0.1770
     54  OG1       13.0320   76.0910  122.2950 O.3   210  THR210     -0.2211
     55  CG2       15.0780   76.3180  121.0340 C.3   210  THR210      0.0375
     56  N         17.8440   74.1830  119.0870 N.3   212  THR212     -0.1203
     57  CA        18.4830   75.0140  118.0560 C.3   212  THR212      0.1994
     58  C         17.8400   76.4000  118.0220 C.2   212  THR212      0.2618
     59  O         16.6300   76.5190  117.8620 O.2   212  THR212     -0.2717
     60  CB        18.3560   74.3750  116.6420 C.3   212  THR212      0.1784
     61  OG1       16.9740   74.1740  116.3280 O.3   212  THR212     -0.2211
     62  CG2       19.0670   73.0390  116.5830 C.3   212  THR212      0.0376
     63  N         18.6410   77.4520  118.1560 N.am  213  PHE213     -0.1961
     64  CA        18.0830   78.8010  118.1640 C.3   213  PHE213      0.1771
     65  C         19.1050   79.8480  117.7460 C.2   213  PHE213      0.2619
     66  O         20.2980   79.5880  117.7770 O.2   213  PHE213     -0.2715
     67  CB        17.5830   79.1310  119.5700 C.3   213  PHE213      0.0574
     68  CG        16.5480   80.2140  119.6040 C.ar  213  PHE213     -0.0200
     69  CD1       15.2310   79.9450  119.2350 C.ar  213  PHE213     -0.0042
     70  CD2       16.8830   81.5030  119.9980 C.ar  213  PHE213     -0.0042
     71  CE1       14.2630   80.9470  119.2600 C.ar  213  PHE213     -0.0003
     72  CE2       15.9190   82.5150  120.0250 C.ar  213  PHE213     -0.0003
     73  CZ        14.6110   82.2370  119.6560 C.ar  213  PHE213     -0.0000
     74  N         18.6260   81.0360  117.3770 N.am  214  PHE214     -0.1974
     75  CA        19.4950   82.1420  116.9620 C.3   214  PHE214      0.1639
     76  C         20.6790   82.3140  117.9120 C.2   214  PHE214      0.2290
     77  O         20.5260   82.2340  119.1300 O.2   214  PHE214     -0.2864
     78  CB        18.7170   83.4600  116.8940 C.3   214  PHE214      0.0560
     79  CG        17.4460   83.3770  116.0970 C.ar  214  PHE214     -0.0200
     80  CD1       16.2090   83.3190  116.7410 C.ar  214  PHE214     -0.0042
     81  CD2       17.4860   83.3350  114.7000 C.ar  214  PHE214     -0.0042
     82  CE1       15.0270   83.2190  116.0060 C.ar  214  PHE214     -0.0003
     83  CE2       16.3090   83.2350  113.9500 C.ar  214  PHE214     -0.0003
     84  CZ        15.0740   83.1770  114.6020 C.ar  214  PHE214     -0.0000
     85  N         12.2750   71.2870  120.6500 N.3   239  ASN239     -0.1240
     86  CA        12.1750   71.9730  119.3800 C.3   239  ASN239      0.1653
     87  C         13.5760   71.8800  118.7910 C.2   239  ASN239      0.2266
     88  O         14.5010   72.5390  119.2660 O.2   239  ASN239     -0.2867
     89  CB        11.7900   73.4410  119.5710 C.3   239  ASN239      0.1155
     90  CG        11.8340   74.2240  118.2640 C.2   239  ASN239      0.2627
     91  OD1       12.3460   73.7330  117.2580 O.2   239  ASN239     -0.2716
     92  ND2       11.3140   75.4520  118.2800 N.am  239  ASN239     -0.0877
     93  N         14.3470   72.5270  115.5020 N.3   241  ALA241     -0.1231
     94  CA        14.1460   73.0730  114.1680 C.3   241  ALA241      0.1694
     95  C         15.2500   72.6700  113.2060 C.2   241  ALA241      0.2592
     96  O         14.9780   71.9920  112.2230 O.2   241  ALA241     -0.2718
     97  CB        14.0090   74.5970  114.2270 C.3   241  ALA241      0.0304
     98  N         16.4910   73.0620  113.4740 N.am  242  TYR242     -0.1976
     99  CA        17.5770   72.6860  112.5710 C.3   242  TYR242      0.1639
    100  C         18.7300   71.9350  113.2130 C.2   242  TYR242      0.2290
    101  O         19.8930   72.2650  112.9970 O.2   242  TYR242     -0.2864
    102  CB        18.1000   73.9150  111.8180 C.3   242  TYR242      0.0560
    103  CG        18.4380   75.1130  112.6650 C.ar  242  TYR242     -0.0198
    104  CD1       19.7170   75.2770  113.1960 C.ar  242  TYR242     -0.0009
    105  CD2       17.4920   76.1110  112.9010 C.ar  242  TYR242     -0.0009
    106  CE1       20.0480   76.4070  113.9320 C.ar  242  TYR242      0.0417
    107  CE2       17.8110   77.2440  113.6390 C.ar  242  TYR242      0.0417
    108  CZ        19.0910   77.3860  114.1480 C.ar  242  TYR242      0.1957
    109  OH        19.4280   78.5120  114.8610 O.3   242  TYR242     -0.2866
    110  N         12.6070   70.8780  111.2780 N.3   267  SER267     -0.1217
    111  CA        12.1230   71.3980  110.0140 C.3   267  SER267      0.1889
    112  C         12.7510   70.6110  108.8770 C.2   267  SER267      0.2288
    113  O         13.9560   70.3770  108.8810 O.2   267  SER267     -0.2866
    114  CB        12.4840   72.8760  109.9010 C.3   267  SER267      0.2089
    115  OG        13.1180   73.1370  108.6670 O.3   267  SER267     -0.2183
    116  N         12.7350   71.6130  105.7410 N.3   269  ASP269     -0.1225
    117  CA        13.2800   72.5110  104.7400 C.3   269  ASP269      0.1805
    118  C         14.6830   72.8860  105.1720 C.2   269  ASP269      0.2597
    119  O         15.6180   72.8530  104.3660 O.2   269  ASP269     -0.2718
    120  CB        12.4230   73.7700  104.5960 C.3   269  ASP269      0.1424
    121  CG        12.2690   74.5200  105.9040 C.2   269  ASP269      0.3668
    122  OD1       11.6890   73.9420  106.8580 O.co2 269  ASP269     -0.2456
    123  OD2       12.7330   75.6830  105.9800 O.co2 269  ASP269     -0.2456
    124  N         14.8360   73.2200  106.4490 N.am  270  LYS270     -0.1979
    125  CA        16.1380   73.6080  106.9840 C.3   270  LYS270      0.1596
    126  C         17.1390   72.4590  107.0450 C.2   270  LYS270      0.2287
    127  O         18.3420   72.6910  107.0390 O.2   270  LYS270     -0.2864
    128  CB        15.9910   74.1760  108.3990 C.3   270  LYS270      0.0298
    129  CG        15.1630   75.4310  108.5070 C.3   270  LYS270      0.0038
    130  CD        14.9590   75.7730  109.9670 C.3   270  LYS270      0.0206
    131  CE        14.2820   77.1130  110.1680 C.3   270  LYS270      0.1093
    132  NZ        14.0790   77.3390  111.6250 N.3   270  LYS270     -0.1314
    133  N          9.6140   75.0990  101.9440 N.3   276  ILE276     -0.1231
    134  CA         8.9570   75.3550  103.2240 C.3   276  ILE276      0.1692
    135  C          7.6140   74.6510  103.3370 C.2   276  ILE276      0.2593
    136  O          6.8700   74.5700  102.3580 O.2   276  ILE276     -0.2718
    137  CB         8.7250   76.8690  103.4640 C.3   276  ILE276      0.0266
    138  CG1       10.0150   77.5550  103.9310 C.3   276  ILE276      0.0019
    139  CG2        7.6490   77.0640  104.5290 C.3   276  ILE276      0.0020
    140  CD1       11.1050   77.6620  102.8730 C.3   276  ILE276      0.0001
    141  N          7.3100   74.1350  104.5270 N.am  277  GLY277     -0.1942
    142  CA         6.0330   73.4710  104.7310 C.3   277  GLY277      0.2014
    143  C          5.9630   72.0900  105.3770 C.2   277  GLY277      0.2639
    144  O          4.8610   71.6020  105.6520 O.2   277  GLY277     -0.2714
    145  N          7.1000   71.4510  105.6320 N.am  278  GLY278     -0.1954
    146  CA         7.0570   70.1310  106.2350 C.3   278  GLY278      0.1869
    147  C          7.8070   69.9700  107.5470 C.2   278  GLY278      0.2309
    148  O          8.7240   70.7310  107.8490 O.2   278  GLY278     -0.2863
@<TRIPOS>BOND
     1   133   134    1
     2   136   135    2
     3   140   138    1
     4   134   135    1
     5   134   137    1
     6   135   141   am
     7   137   138    1
     8   137   139    1
     9   119   118    2
    10   141   142    1
    11   120   117    1
    12   120   121    1
    13   142   143    1
    14   117   118    1
    15   117   116    1
    16   118   124   am
    17   143   145   am
    18   143   144    2
    19   145   146    1
    20   121   123   ar
    21   121   122   ar
    22   146   147    1
    23   124   125    1
    24   125   126    1
    25   125   128    1
    26   127   126    2
    27   147   148    2
    28   128   129    1
    29   129   130    1
    30   115   114    1
    31   112   113    2
    32   112   111    1
    33     1     2    1
    34     2     5    1
    35     2     3    1
    36   114   111    1
    37     5     6    1
    38   130   131    1
    39   111   110    1
    40   131   132    1
    41     3     7   am
    42     3     4    2
    43     7     8    1
    44   102    99    1
    45   102   103    1
    46    13    11    1
    47    96    95    2
    48     8    11    1
    49     8     9    1
    50    99   100    1
    51    99    98    1
    52    11    12    1
    53   103   105   ar
    54   103   104   ar
    55   105   107   ar
    56   101   100    2
    57   104   106   ar
    58    95    98   am
    59    95    94    1
    60    14     9   am
    61    14    15    1
    62   107   108   ar
    63     9    10    2
    64    35    34   ar
    65    35    33   ar
    66   106   108   ar
    67    83    84   ar
    68    83    81   ar
    69    34    32   ar
    70   108   109    1
    71    94    97    1
    72    94    93    1
    73    41    40    1
    74    84    82   ar
    75    15    16    1
    76    40    37    1
    77    81    79   ar
    78    16    17    2
    79    33    31   ar
    80    32    31   ar
    81    37    36    1
    82    37    38    1
    83    82    80   ar
    84    31    30    1
    85    79    80   ar
    86    79    78    1
    87    61    60    1
    88    18    19    1
    89    62    60    1
    90    60    57    1
    91    38    39    2
    92    38    42   am
    93    78    75    1
    94    75    74    1
    95    75    76    1
    96    91    90    2
    97    74    65   am
    98    30    27    1
    99    48    42    1
   100    48    47    1
   101    42    43    1
   102    65    66    2
   103    65    64    1
   104    23    25    1
   105    23    22    1
   106    19    22    1
   107    19    20    1
   108    59    58    2
   109    28    27    1
   110    28    29    2
   111    76    77    2
   112    27    26    1
   113    58    57    1
   114    58    63   am
   115    57    56    1
   116    63    64    1
   117    64    67    1
   118    22    24    1
   119    90    92   am
   120    90    89    1
   121    20    21    2
   122    43    46    1
   123    43    44    1
   124    87    88    2
   125    87    86    1
   126    47    46    1
   127    69    71   ar
   128    69    68   ar
   129    71    73   ar
   130    86    89    1
   131    86    85    1
   132    67    68    1
   133    68    70   ar
   134    73    72   ar
   135    44    45    2
   136    70    72   ar
   137    55    53    1
   138    54    53    1
   139    53    50    1
   140    51    50    1
   141    51    52    2
   142    50    49    1
