@<TRIPOS>MOLECULE
tmp/2z68B00.pdb
 127 120 0 0 0
SMALL
GASTEIGER

@<TRIPOS>ATOM
      1  N        -25.6770   27.4850   13.2680 N.3     3  ALA3       -0.1245
      2  CA       -25.2420   27.9220   11.9390 C.3     3  ALA3        0.1562
      3  C        -24.2880   29.1380   12.0300 C.2     3  ALA3        0.2260
      4  O        -23.2610   29.2060   11.3280 O.2     3  ALA3       -0.2867
      5  CB       -26.4470   28.2270   11.0580 C.3     3  ALA3        0.0290
      6  N        -20.1310   29.2520   11.3400 N.3     7  LYS7       -0.1245
      7  CA       -19.4990   30.2360   10.4690 C.3     7  LYS7        0.1561
      8  C        -18.3660   30.9700   11.1870 C.2     7  LYS7        0.2260
      9  O        -17.2680   31.1010   10.6500 O.2     7  LYS7       -0.2867
     10  CB       -20.5330   31.2260    9.9200 C.3     7  LYS7        0.0271
     11  CG       -19.9700   32.2310    8.9380 C.3     7  LYS7        0.0035
     12  CD       -21.0980   33.0260    8.2770 C.3     7  LYS7        0.0206
     13  CE       -20.5760   34.0850    7.2990 C.3     7  LYS7        0.1093
     14  NZ       -21.6110   34.4810    6.2730 N.3     7  LYS7       -0.1314
     15  N        -11.2660   29.0020    7.1220 N.3    14  HIS14      -0.1241
     16  CA       -12.0530   29.2350    5.9130 C.3    14  HIS14       0.1621
     17  C        -11.4070   30.3290    5.0600 C.2    14  HIS14       0.2264
     18  O        -11.1880   30.1390    3.8740 O.2    14  HIS14      -0.2867
     19  CB       -13.4750   29.6400    6.2890 C.3    14  HIS14       0.0745
     20  CG       -14.4350   29.6640    5.1400 C.ar   14  HIS14       0.0817
     21  ND1      -15.7750   29.9440    5.3020 N.ar   14  HIS14      -0.2268
     22  CD2      -14.2630   29.4030    3.8220 C.ar   14  HIS14       0.1154
     23  CE1      -16.3830   29.8840    4.1310 C.ar   14  HIS14       0.1986
     24  NE2      -15.4880   29.5680    3.2160 N.ar   14  HIS14      -0.2212
     25  N         -8.3230   29.0540    3.4540 N.3    17  ALA17      -0.1231
     26  CA        -8.6720   28.0730    2.4260 C.3    17  ALA17       0.1694
     27  C         -9.0850   28.7680    1.1240 C.2    17  ALA17       0.2591
     28  O         -8.7300   28.3010    0.0500 O.2    17  ALA17      -0.2718
     29  CB        -9.7750   27.1270    2.9240 C.3    17  ALA17       0.0304
     30  N         -9.8140   29.8800    1.2360 N.am   18  GLU18      -0.1979
     31  CA       -10.2570   30.6850    0.0700 C.3    18  GLU18       0.1602
     32  C         -9.1770   31.5800   -0.5460 C.2    18  GLU18       0.2287
     33  O         -9.3750   32.1680   -1.6240 O.2    18  GLU18      -0.2864
     34  CB       -11.4690   31.5390    0.4520 C.3    18  GLU18       0.0415
     35  CG       -12.7550   30.7440    0.6020 C.3    18  GLU18       0.1163
     36  CD       -13.9780   31.6160    0.8590 C.2    18  GLU18       0.3649
     37  OE1      -13.8010   32.8430    1.0700 O.co2  18  GLU18      -0.2457
     38  OE2      -15.1180   31.0860    0.8490 O.co2  18  GLU18      -0.2457
     39  N        -21.2840   20.1630    5.4000 N.3   124  TYR124     -0.1227
     40  CA       -21.4200   21.6180    5.3580 C.3   124  TYR124      0.1736
     41  C        -20.3190   22.2720    4.5030 C.2   124  TYR124      0.2595
     42  O        -20.6340   23.0380    3.5520 O.2   124  TYR124     -0.2718
     43  CB       -21.3970   22.1230    6.8030 C.3   124  TYR124      0.0548
     44  CG       -21.2210   23.6220    6.9760 C.ar  124  TYR124     -0.0200
     45  CD1      -22.3260   24.4820    6.9960 C.ar  124  TYR124     -0.0009
     46  CD2      -19.9450   24.1790    7.1420 C.ar  124  TYR124     -0.0009
     47  CE1      -22.1640   25.8700    7.1870 C.ar  124  TYR124      0.0417
     48  CE2      -19.7790   25.5710    7.3540 C.ar  124  TYR124      0.0417
     49  CZ       -20.8710   26.3910    7.3580 C.ar  124  TYR124      0.1957
     50  OH       -20.6760   27.7480    7.5510 O.3   124  TYR124     -0.2866
     51  N        -19.0530   21.9400    4.8070 N.am  125  VAL125     -0.1966
     52  CA       -17.8870   22.5290    4.1590 C.3   125  VAL125      0.1727
     53  C        -17.9530   22.3000    2.6430 C.2   125  VAL125      0.2616
     54  O        -17.7970   23.2650    1.8720 O.2   125  VAL125     -0.2715
     55  CB       -16.5610   22.0850    4.7740 C.3   125  VAL125      0.0290
     56  CG1      -15.3790   22.5120    3.8760 C.3   125  VAL125      0.0023
     57  CG2      -16.4300   22.6540    6.1940 C.3   125  VAL125      0.0023
     58  N        -18.2560   21.0640    2.2240 N.am  126  ARG126     -0.1977
     59  CA       -18.3200   20.7740    0.7860 C.3   126  ARG126      0.1597
     60  C        -19.6080   21.2440    0.1340 C.2   126  ARG126      0.2287
     61  O        -19.5770   22.1530   -0.7200 O.2   126  ARG126     -0.2864
     62  CB       -18.0250   19.2990    0.4770 C.3   126  ARG126      0.0334
     63  CG       -16.5360   18.9170    0.6740 C.3   126  ARG126      0.0492
     64  CD       -15.5180   19.8250   -0.0570 C.3   126  ARG126      0.2205
     65  NE       -15.9090   20.1810   -1.4350 N.pl3 126  ARG126     -0.0865
     66  CZ       -15.1320   20.8570   -2.2860 C.cat 126  ARG126      0.5346
     67  NH1      -13.9000   21.2290   -1.9410 N.pl3 126  ARG126      0.1354
     68  NH2      -15.5910   21.1510   -3.5160 N.pl3 126  ARG126      0.1354
     69  N        -22.3620   22.9850    1.1070 N.3   128  LEU128     -0.1231
     70  CA       -22.8170   24.3520    1.2100 C.3   128  LEU128      0.1693
     71  C        -21.8780   25.3030    0.4820 C.2   128  LEU128      0.2592
     72  O        -22.3560   26.2920   -0.0850 O.2   128  LEU128     -0.2718
     73  CB       -23.0770   24.7910    2.6470 C.3   128  LEU128      0.0284
     74  CG       -24.0860   25.9160    2.7470 C.3   128  LEU128      0.0019
     75  CD1      -25.4150   25.5710    2.0480 C.3   128  LEU128      0.0001
     76  CD2      -24.3140   26.3000    4.1950 C.3   128  LEU128      0.0001
     77  N        -20.5810   24.9490    0.4370 N.am  129  GLY129     -0.1957
     78  CA       -19.5600   25.6140   -0.4080 C.3   129  GLY129      0.1869
     79  C        -19.9220   25.5270   -1.8840 C.2   129  GLY129      0.2309
     80  O        -19.9000   26.5480   -2.6030 O.2   129  GLY129     -0.2863
     81  N        -23.0270   27.6560   -2.6540 N.3   132  SER132     -0.1217
     82  CA       -22.8330   29.0930   -2.4450 C.3   132  SER132      0.1889
     83  C        -22.0140   29.7850   -3.5100 C.2   132  SER132      0.2288
     84  O        -22.3700   30.8940   -3.9550 O.2   132  SER132     -0.2866
     85  CB       -22.1590   29.3180   -1.1040 C.3   132  SER132      0.2089
     86  OG       -23.0710   28.9730   -0.0920 O.3   132  SER132     -0.2183
     87  N        -29.4220   25.7450    6.8430 N.3   171  ARG171     -0.1245
     88  CA       -28.9350   26.4190    8.0490 C.3   171  ARG171      0.1563
     89  C        -29.9460   26.2900    9.1910 C.2   171  ARG171      0.2260
     90  O        -29.5700   26.1290   10.3600 O.2   171  ARG171     -0.2867
     91  CB       -28.5650   27.8820    7.7430 C.3   171  ARG171      0.0307
     92  CG       -27.2880   28.0080    6.8950 C.3   171  ARG171      0.0489
     93  CD       -26.8060   29.4540    6.7260 C.3   171  ARG171      0.2205
     94  NE       -27.5710   30.1840    5.7190 N.pl3 171  ARG171     -0.0865
     95  CZ       -27.1420   30.5060    4.4990 C.cat 171  ARG171      0.5346
     96  NH1      -25.9260   30.1700    4.0830 N.pl3 171  ARG171      0.1354
     97  NH2      -27.9490   31.1640    3.6790 N.pl3 171  ARG171      0.1354
     98  N        -11.9590   22.5250    6.4810 N.3   195  PHE195     -0.1241
     99  CA       -11.4130   23.6670    5.7030 C.3   195  PHE195      0.1605
    100  C         -9.9110   23.5070    5.4620 C.2   195  PHE195      0.2264
    101  O         -9.4140   23.7100    4.3290 O.2   195  PHE195     -0.2867
    102  CB       -11.7190   25.0160    6.3650 C.3   195  PHE195      0.0534
    103  CG       -13.1330   25.4960    6.1250 C.ar  195  PHE195     -0.0203
    104  CD1      -14.0540   25.5490    7.1850 C.ar  195  PHE195     -0.0042
    105  CD2      -13.5630   25.8480    4.8330 C.ar  195  PHE195     -0.0042
    106  CE1      -15.3490   25.9950    6.9740 C.ar  195  PHE195     -0.0003
    107  CE2      -14.8780   26.2670    4.6030 C.ar  195  PHE195     -0.0003
    108  CZ       -15.7570   26.3660    5.6680 C.ar  195  PHE195     -0.0000
    109  N         -9.1270   20.9510    2.7930 N.3   198  ASN198     -0.1240
    110  CA        -9.3650   21.5300    1.4750 C.3   198  ASN198      0.1653
    111  C         -8.2750   22.5120    1.0680 C.2   198  ASN198      0.2266
    112  O         -7.8210   22.4840   -0.0760 O.2   198  ASN198     -0.2867
    113  CB       -10.7570   22.1120    1.3840 C.3   198  ASN198      0.1155
    114  CG       -11.7470   21.0540    1.1260 C.2   198  ASN198      0.2627
    115  OD1      -11.8780   20.5950   -0.0120 O.2   198  ASN198     -0.2716
    116  ND2      -12.4290   20.5880    2.1880 N.am  198  ASN198     -0.0877
    117  N         -5.6450   22.1510   -2.2780 N.3   202  PHE202     -0.1241
    118  CA        -5.2200   23.2460   -3.1920 C.3   202  PHE202      0.1605
    119  C         -3.6970   23.4470   -3.1690 C.2   202  PHE202      0.2264
    120  O         -3.0690   23.6800   -4.1990 O.2   202  PHE202     -0.2867
    121  CB        -5.8740   24.5740   -2.8240 C.3   202  PHE202      0.0534
    122  CG        -7.3710   24.5640   -2.8410 C.ar  202  PHE202     -0.0203
    123  CD1       -8.0800   23.7630   -3.7330 C.ar  202  PHE202     -0.0042
    124  CD2       -8.0890   25.4300   -2.0010 C.ar  202  PHE202     -0.0042
    125  CE1       -9.5010   23.7920   -3.7380 C.ar  202  PHE202     -0.0003
    126  CE2       -9.4750   25.4540   -1.9780 C.ar  202  PHE202     -0.0003
    127  CZ       -10.2020   24.6530   -2.8670 C.ar  202  PHE202     -0.0000
@<TRIPOS>BOND
     1   120   119    2
     2    84    83    2
     3   125   123   ar
     4   125   127   ar
     5   123   122   ar
     6    68    66    1
     7    83    82    1
     8   118   119    1
     9   118   121    1
    10   118   117    1
    11   127   126   ar
    12   122   121    1
    13   122   124   ar
    14    81    82    1
    15    80    79    2
    16    82    85    1
    17    66    67    1
    18    66    65    2
    19   124   126   ar
    20    79    78    1
    21    33    32    2
    22    65    64    1
    23    85    86    1
    24    61    60    2
    25    32    31    1
    26    78    77    1
    27    72    71    2
    28   112   111    2
    29    64    63    1
    30   115   114    2
    31    28    27    2
    32    31    34    1
    33    31    30    1
    34    60    59    1
    35    77    71   am
    36    34    35    1
    37    62    63    1
    38    62    59    1
    39    71    70    1
    40    35    36    1
    41    59    58    1
    42    38    36   ar
    43    36    37   ar
    44   111   110    1
    45    69    70    1
    46    27    30   am
    47    27    26    1
    48   114   113    1
    49   114   116   am
    50    70    73    1
    51   113   110    1
    52   110   109    1
    53    54    53    2
    54    75    74    1
    55    58    53   am
    56    26    29    1
    57    26    25    1
    58    53    52    1
    59    73    74    1
    60    74    76    1
    61    24    22   ar
    62    24    23   ar
    63    42    41    2
    64    97    95    1
    65    22    20   ar
    66    18    17    2
    67    56    55    1
    68    96    95    1
    69    23    21   ar
    70    52    55    1
    71    52    51    1
    72   101   100    2
    73    95    94    2
    74    41    51   am
    75    41    40    1
    76   107   105   ar
    77   107   108   ar
    78    55    57    1
    79   105   103   ar
    80    17    16    1
    81    20    21   ar
    82    20    19    1
    83    40    39    1
    84    40    43    1
    85   100    99    1
    86   108   106   ar
    87    99   102    1
    88    99    98    1
    89    94    93    1
    90    16    19    1
    91    16    15    1
    92   103   102    1
    93   103   104   ar
    94    14    13    1
    95    93    92    1
    96    43    44    1
    97    87    88    1
    98    92    91    1
    99   106   104   ar
   100    44    45   ar
   101    44    46   ar
   102    45    47   ar
   103    46    48   ar
   104    47    49   ar
   105    13    12    1
   106    48    49   ar
   107    49    50    1
   108    91    88    1
   109    88    89    1
   110    12    11    1
   111    11    10    1
   112    89    90    2
   113    10     7    1
   114     7     8    1
   115     7     6    1
   116     9     8    2
   117     5     2    1
   118     4     3    2
   119     2     3    1
   120     2     1    1
