@<TRIPOS>MOLECULE
tmp/2z6cB00.pdb
 174 161 0 0 0
SMALL
GASTEIGER

@<TRIPOS>ATOM
      1  N         46.1860   23.1000  -15.2980 N.3    17  VAL17      -0.1245
      2  CA        45.1290   23.6470  -16.1390 C.3    17  VAL17       0.1561
      3  C         45.4000   25.1360  -16.2620 C.2    17  VAL17       0.2260
      4  O         46.1080   25.7050  -15.4610 O.2    17  VAL17      -0.2867
      5  CB        43.7060   23.4290  -15.5710 C.3    17  VAL17       0.0252
      6  CG1       43.3570   21.9510  -15.4440 C.3    17  VAL17       0.0019
      7  CG2       43.4960   24.1630  -14.2210 C.3    17  VAL17       0.0019
      8  N         43.1210   28.6060  -16.7260 N.3    19  SER19      -0.1217
      9  CA        41.8000   29.1730  -16.7060 C.3    19  SER19       0.1889
     10  C         41.7830   30.6360  -17.1340 C.2    19  SER19       0.2288
     11  O         42.7050   31.4040  -16.8320 O.2    19  SER19      -0.2866
     12  CB        41.1820   29.0540  -15.3160 C.3    19  SER19       0.2089
     13  OG        40.9260   27.6930  -15.0200 O.3    19  SER19      -0.2183
     14  N         35.8700   31.6020  -14.4240 N.3    26  TYR26      -0.1241
     15  CA        37.2050   30.9890  -14.5930 C.3    26  TYR26       0.1605
     16  C         37.1530   29.6410  -15.2770 C.2    26  TYR26       0.2264
     17  O         37.6950   28.6560  -14.7700 O.2    26  TYR26      -0.2867
     18  CB        37.9250   30.8670  -13.2530 C.3    26  TYR26       0.0534
     19  CG        38.0630   32.2040  -12.5950 C.ar   26  TYR26      -0.0201
     20  CD1       39.1100   33.0480  -12.9370 C.ar   26  TYR26      -0.0009
     21  CD2       37.1010   32.6610  -11.7050 C.ar   26  TYR26      -0.0009
     22  CE1       39.2300   34.2910  -12.3870 C.ar   26  TYR26       0.0417
     23  CE2       37.2190   33.9020  -11.1260 C.ar   26  TYR26       0.0417
     24  CZ        38.3060   34.7150  -11.4780 C.ar   26  TYR26       0.1957
     25  OH        38.4540   35.9620  -10.9400 O.3    26  TYR26      -0.2866
     26  N         34.5880   25.2990  -15.0200 N.3    50  ASN50      -0.1225
     27  CA        35.2770   25.6640  -13.7950 C.3    50  ASN50       0.1785
     28  C         35.7500   24.3420  -13.1450 C.2    50  ASN50       0.2597
     29  O         35.0420   23.3100  -13.2130 O.2    50  ASN50      -0.2718
     30  CB        34.3260   26.4280  -12.8960 C.3    50  ASN50       0.1169
     31  CG        34.9770   26.9270  -11.6500 C.2    50  ASN50       0.2627
     32  OD1       35.2920   26.1480  -10.7420 O.2    50  ASN50      -0.2716
     33  ND2       35.1720   28.2320  -11.5730 N.am   50  ASN50      -0.0877
     34  N         36.9720   24.3490  -12.6080 N.am   51  CYS51      -0.1956
     35  CA        37.6260   23.1100  -12.0420 C.3    51  CYS51       0.1843
     36  C         36.9830   22.5720  -10.7410 C.2    51  CYS51       0.2625
     37  O         37.3980   21.5310  -10.2120 O.2    51  CYS51      -0.2714
     38  CB        39.1780   23.3290  -11.9010 C.3    51  CYS51       0.0997
     39  SG        40.1400   21.8300  -11.9470 S.3    51  CYS51      -0.0797
     40  N         35.9250   23.2460  -10.2520 N.am   52  ARG52      -0.1977
     41  CA        35.1570   22.8050   -9.0670 C.3    52  ARG52       0.1597
     42  C         34.4810   21.4470   -9.1940 C.2    52  ARG52       0.2287
     43  O         34.0980   20.8720   -8.1850 O.2    52  ARG52      -0.2864
     44  CB        34.1210   23.8580   -8.6250 C.3    52  ARG52       0.0334
     45  CG        32.8520   23.9650   -9.5880 C.3    52  ARG52       0.0492
     46  CD        31.7670   24.8230   -8.9470 C.3    52  ARG52       0.2205
     47  NE        32.1750   26.2190   -8.8040 N.pl3  52  ARG52      -0.0865
     48  CZ        32.0830   27.1360   -9.7710 C.cat  52  ARG52       0.5346
     49  NH1       31.6070   26.8110  -10.9700 N.pl3  52  ARG52       0.1354
     50  NH2       32.4790   28.3750   -9.5480 N.pl3  52  ARG52       0.1354
     51  N         36.0110   18.8290   -9.4980 N.3    54  LEU54      -0.1231
     52  CA        36.9150   17.9420   -8.7040 C.3    54  LEU54       0.1693
     53  C         36.5210   17.8570   -7.2220 C.2    54  LEU54       0.2591
     54  O         37.0450   17.0390   -6.4580 O.2    54  LEU54      -0.2718
     55  CB        38.3740   18.4370   -8.8330 C.3    54  LEU54       0.0284
     56  CG        39.0630   18.2420  -10.2170 C.3    54  LEU54       0.0019
     57  CD1       40.5460   18.6030  -10.1950 C.3    54  LEU54       0.0001
     58  CD2       38.8690   16.8360  -10.8110 C.3    54  LEU54       0.0001
     59  N         35.6090   18.7170   -6.7910 N.am   55  GLN55      -0.1979
     60  CA        35.2670   18.7980   -5.3870 C.3    55  GLN55       0.1601
     61  C         34.1100   17.8710   -4.9970 C.2    55  GLN55       0.2287
     62  O         33.4340   17.2720   -5.8470 O.2    55  GLN55      -0.2864
     63  CB        34.9080   20.2430   -5.0320 C.3    55  GLN55       0.0394
     64  CG        36.0790   21.1940   -5.2690 C.3    55  GLN55       0.0908
     65  CD        35.6710   22.6630   -5.3610 C.2    55  GLN55       0.2608
     66  OE1       34.5070   23.0300   -5.0850 O.2    55  GLN55      -0.2717
     67  NE2       36.6200   23.5110   -5.7960 N.am   55  GLN55      -0.0878
     68  N         38.2220   26.8630   -0.1070 N.3    64  LEU64      -0.1245
     69  CA        37.6020   27.3920   -1.3500 C.3    64  LEU64       0.1561
     70  C         37.3530   28.9080   -1.2670 C.2    64  LEU64       0.2260
     71  O         37.3770   29.5920   -2.3020 O.2    64  LEU64      -0.2867
     72  CB        36.2910   26.6780   -1.6930 C.3    64  LEU64       0.0270
     73  CG        36.3320   25.1500   -1.7750 C.3    64  LEU64       0.0019
     74  CD1       34.9440   24.6330   -2.1180 C.3    64  LEU64       0.0001
     75  CD2       37.3730   24.7040   -2.7660 C.3    64  LEU64       0.0001
     76  N         40.5790   30.5310   -2.0350 N.3    67  ILE67      -0.1231
     77  CA        40.7860   30.5330   -3.4770 C.3    67  ILE67       0.1692
     78  C         39.9830   31.6960   -4.1630 C.2    67  ILE67       0.2591
     79  O         40.5050   32.4030   -5.0170 O.2    67  ILE67      -0.2718
     80  CB        40.3740   29.2040   -4.1070 C.3    67  ILE67       0.0266
     81  CG1       41.2650   28.0480   -3.6090 C.3    67  ILE67       0.0019
     82  CG2       40.5060   29.3120   -5.6390 C.3    67  ILE67       0.0020
     83  CD1       40.8390   26.6540   -4.0950 C.3    67  ILE67       0.0001
     84  N         38.7050   31.8360   -3.8060 N.am   68  ARG68      -0.1980
     85  CA        37.8430   32.8840   -4.3620 C.3    68  ARG68       0.1597
     86  C         38.4900   34.2380   -4.1220 C.2    68  ARG68       0.2287
     87  O         38.5110   35.0610   -4.9990 O.2    68  ARG68      -0.2864
     88  CB        36.4690   32.8650   -3.6520 C.3    68  ARG68       0.0334
     89  CG        35.5560   31.8170   -4.1680 C.3    68  ARG68       0.0492
     90  CD        34.0430   32.0710   -3.7700 C.3    68  ARG68       0.2205
     91  NE        33.8630   32.1810   -2.3140 N.pl3  68  ARG68      -0.0865
     92  CZ        33.6490   31.1630   -1.4730 C.cat  68  ARG68       0.5346
     93  NH1       33.6090   29.9000   -1.8860 N.pl3  68  ARG68       0.1354
     94  NH2       33.5130   31.4310   -0.1830 N.pl3  68  ARG68       0.1354
     95  N         41.5750   34.7980   -6.4360 N.3    71  LEU71      -0.1245
     96  CA        41.2730   35.0230   -7.8370 C.3    71  LEU71       0.1561
     97  C         40.7030   36.4380   -8.0480 C.2    71  LEU71       0.2260
     98  O         40.8370   37.0060   -9.1290 O.2    71  LEU71      -0.2867
     99  CB        40.2690   33.9890   -8.3670 C.3    71  LEU71       0.0270
    100  CG        40.5040   32.4810   -8.1280 C.3    71  LEU71       0.0019
    101  CD1       39.3740   31.6370   -8.6470 C.3    71  LEU71       0.0001
    102  CD2       41.8140   32.0550   -8.7440 C.3    71  LEU71       0.0001
    103  N         44.0220   20.2530   -0.8910 N.3    81  ILE81      -0.1245
    104  CA        42.5650   20.1710   -0.8190 C.3    81  ILE81       0.1561
    105  C         42.1070   18.7900   -1.2110 C.2    81  ILE81       0.2260
    106  O         42.7120   18.1220   -2.0450 O.2    81  ILE81      -0.2867
    107  CB        41.8910   21.2050   -1.7260 C.3    81  ILE81       0.0252
    108  CG1       42.4510   21.1220   -3.1370 C.3    81  ILE81       0.0019
    109  CG2       42.1810   22.6360   -1.1770 C.3    81  ILE81       0.0019
    110  CD1       41.6670   21.8660   -4.1300 C.3    81  ILE81       0.0001
    111  N         39.9830   16.2550   -3.1040 N.3    83  ASN83      -0.1240
    112  CA        39.3190   16.2480   -4.4010 C.3    83  ASN83       0.1653
    113  C         38.9550   14.8050   -4.6950 C.2    83  ASN83       0.2266
    114  O         39.3700   13.9090   -3.9530 O.2    83  ASN83      -0.2867
    115  CB        40.2490   16.7430   -5.5090 C.3    83  ASN83       0.1155
    116  CG        40.2360   18.2810   -5.7020 C.2    83  ASN83       0.2627
    117  OD1       40.9550   18.7650   -6.5750 O.2    83  ASN83      -0.2716
    118  ND2       39.3790   19.0410   -4.9430 N.am   83  ASN83      -0.0877
    119  N         44.9410   16.9050   -3.2540 N.3    93  ASN93      -0.1240
    120  CA        45.4570   17.6440   -4.3920 C.3    93  ASN93       0.1653
    121  C         46.2520   18.8270   -3.8400 C.2    93  ASN93       0.2266
    122  O         45.6810   19.7160   -3.2330 O.2    93  ASN93      -0.2867
    123  CB        44.2480   18.1420   -5.1690 C.3    93  ASN93       0.1155
    124  CG        44.6020   18.9100   -6.4450 C.2    93  ASN93       0.2627
    125  OD1       45.7570   19.2230   -6.7220 O.2    93  ASN93      -0.2716
    126  ND2       43.5690   19.2740   -7.1910 N.am   93  ASN93      -0.0877
    127  N         47.5510   21.9970   -4.6140 N.3    95  LEU95      -0.1245
    128  CA        47.1020   22.8590   -5.6870 C.3    95  LEU95       0.1561
    129  C         47.8610   24.1680   -5.5400 C.2    95  LEU95       0.2260
    130  O         47.8890   24.7360   -4.4430 O.2    95  LEU95      -0.2867
    131  CB        45.5820   23.1580   -5.5580 C.3    95  LEU95       0.0270
    132  CG        44.9970   24.2830   -6.4370 C.3    95  LEU95       0.0019
    133  CD1       45.1990   23.9570   -7.8980 C.3    95  LEU95       0.0001
    134  CD2       43.4890   24.4440   -6.0900 C.3    95  LEU95       0.0001
    135  N         48.1630   27.9270   -7.4590 N.3    97  ILE97      -0.1245
    136  CA        47.5930   28.7890   -8.4800 C.3    97  ILE97       0.1561
    137  C         48.4030   30.0810   -8.5200 C.2    97  ILE97       0.2260
    138  O         48.6340   30.6840   -7.4930 O.2    97  ILE97      -0.2867
    139  CB        46.0510   29.0880   -8.2060 C.3    97  ILE97       0.0252
    140  CG1       45.1960   27.8130   -8.3850 C.3    97  ILE97       0.0019
    141  CG2       45.5080   30.1220   -9.2050 C.3    97  ILE97       0.0019
    142  CD1       43.8630   27.8960   -7.6700 C.3    97  ILE97       0.0001
    143  N         44.7270   32.3530  -15.0010 N.3   110  PHE110     -0.1227
    144  CA        45.4020   31.6720  -13.9190 C.3   110  PHE110      0.1736
    145  C         45.8810   30.3220  -14.3870 C.2   110  PHE110      0.2595
    146  O         45.1920   29.6280  -15.1140 O.2   110  PHE110     -0.2718
    147  CB        44.4740   31.4950  -12.6990 C.3   110  PHE110      0.0547
    148  CG        44.1830   32.7730  -11.9880 C.ar  110  PHE110     -0.0202
    149  CD1       45.0460   33.2630  -11.0180 C.ar  110  PHE110     -0.0042
    150  CD2       43.0240   33.5020  -12.2920 C.ar  110  PHE110     -0.0042
    151  CE1       44.7560   34.4660  -10.3030 C.ar  110  PHE110     -0.0003
    152  CE2       42.7360   34.6940  -11.6130 C.ar  110  PHE110     -0.0003
    153  CZ        43.6120   35.1980  -10.6270 C.ar  110  PHE110     -0.0000
    154  N         47.0630   29.9360  -13.9360 N.am  111  ILE111     -0.1966
    155  CA        47.5360   28.5590  -14.1420 C.3   111  ILE111      0.1727
    156  C         47.4010   27.8440  -12.7850 C.2   111  ILE111      0.2616
    157  O         47.7590   28.3870  -11.7710 O.2   111  ILE111     -0.2715
    158  CB        48.9970   28.5310  -14.6640 C.3   111  ILE111      0.0290
    159  CG1       49.4420   27.0860  -14.9880 C.3   111  ILE111      0.0022
    160  CG2       49.9730   29.2760  -13.6970 C.3   111  ILE111      0.0023
    161  CD1       50.6380   27.0240  -15.9030 C.3   111  ILE111      0.0001
    162  N         46.8690   26.6400  -12.7790 N.am  112  GLY112     -0.1955
    163  CA        46.7860   25.8420  -11.5460 C.3   112  GLY112      0.1869
    164  C         47.5340   24.5410  -11.7440 C.2   112  GLY112      0.2309
    165  O         47.1860   23.7360  -12.6200 O.2   112  GLY112     -0.2863
    166  N         48.6340   20.9810  -10.2770 N.3   114  GLN114     -0.1245
    167  CA        47.9950   20.0180   -9.4200 C.3   114  GLN114      0.1566
    168  C         48.9260   18.8300   -9.2230 C.2   114  GLN114      0.2260
    169  O         49.4940   18.3070  -10.1970 O.2   114  GLN114     -0.2867
    170  CB        46.7130   19.4930  -10.0870 C.3   114  GLN114      0.0367
    171  CG        45.5390   20.4780  -10.0370 C.3   114  GLN114      0.0905
    172  CD        45.0480   20.9480  -11.4110 C.2   114  GLN114      0.2608
    173  OE1       45.5650   20.5500  -12.4600 O.2   114  GLN114     -0.2717
    174  NE2       43.9930   21.7720  -11.4000 N.am  114  GLN114     -0.0878
@<TRIPOS>BOND
     1    10    11    2
     2    10     9    1
     3     8     9    1
     4     9    12    1
     5     3     2    1
     6     3     4    2
     7     2     5    1
     8     2     1    1
     9   161   159    1
    10     5     6    1
    11     5     7    1
    12    12    13    1
    13    16    17    2
    14    16    15    1
    15   146   145    2
    16    26    27    1
    17   143   144    1
    18   159   158    1
    19   158   155    1
    20   158   160    1
    21    15    14    1
    22    15    18    1
    23   145   154   am
    24   145   144    1
    25   155   154    1
    26   155   156    1
    27   144   147    1
    28    27    28    1
    29    27    30    1
    30    18    19    1
    31    29    28    2
    32    28    34   am
    33    20    19   ar
    34    20    22   ar
    35    30    31    1
    36   156   162   am
    37   156   157    2
    38   162   163    1
    39   147   148    1
    40   165   164    2
    41    34    35    1
    42    19    21   ar
    43   173   172    2
    44    22    24   ar
    45   150   148   ar
    46   150   152   ar
    47    35    38    1
    48    35    36    1
    49   148   149   ar
    50    39    38    1
    51   164   163    1
    52    21    23   ar
    53    31    33   am
    54    31    32    2
    55   152   153   ar
    56    24    23   ar
    57    24    25    1
    58   172   174   am
    59   172   171    1
    60   149   151   ar
    61    49    48    1
    62    58    56    1
    63    36    40   am
    64    36    37    2
    65   153   151   ar
    66   166   167    1
    67    40    41    1
    68    56    57    1
    69    56    55    1
    70   169   168    2
    71   170   171    1
    72   170   167    1
    73    48    50    1
    74    48    47    2
    75    45    46    1
    76    45    44    1
    77    51    52    1
    78   167   168    1
    79   141   139    1
    80    42    41    1
    81    42    43    2
    82    98    97    2
    83    41    44    1
    84    46    47    1
    85    55    52    1
    86   102   100    1
    87    52    53    1
    88   101   100    1
    89   137   136    1
    90   137   138    2
    91   136   139    1
    92   136   135    1
    93   140   139    1
    94   140   142    1
    95    99   100    1
    96    99    96    1
    97    97    96    1
    98   133   132    1
    99    96    95    1
   100    53    59   am
   101    53    54    2
   102   126   124   am
   103    59    60    1
   104   125   124    2
   105   117   116    2
   106   124   123    1
   107   132   134    1
   108   132   131    1
   109    62    61    2
   110    67    65   am
   111   116   115    1
   112   116   118   am
   113   128   131    1
   114   128   129    1
   115   128   127    1
   116    82    80    1
   117   129   130    2
   118   115   112    1
   119    60    63    1
   120    60    61    1
   121    65    64    1
   122    65    66    2
   123    64    63    1
   124   123   120    1
   125    79    78    2
   126    87    86    2
   127   113   112    1
   128   113   114    2
   129   112   111    1
   130   120   121    1
   131   120   119    1
   132    85    86    1
   133    85    84    1
   134    85    88    1
   135    89    90    1
   136    89    88    1
   137    78    84   am
   138    78    77    1
   139   110   108    1
   140    80    81    1
   141    80    77    1
   142    83    81    1
   143   121   122    2
   144    90    91    1
   145    77    76    1
   146   108   107    1
   147    75    73    1
   148    91    92    2
   149    71    70    2
   150    74    73    1
   151   106   105    2
   152    93    92    1
   153    73    72    1
   154   107   109    1
   155   107   104    1
   156    72    69    1
   157    92    94    1
   158    69    70    1
   159    69    68    1
   160   105   104    1
   161   103   104    1
