@<TRIPOS>MOLECULE
tmp/2z6dA00.pdb
 165 151 0 0 0
SMALL
GASTEIGER

@<TRIPOS>ATOM
      1  N        -16.1270  -48.5700   17.0800 N.3    14  VAL14      -0.1245
      2  CA       -15.7810  -49.2960   18.2930 C.3    14  VAL14       0.1561
      3  C        -14.8490  -48.4510   19.1500 C.2    14  VAL14       0.2260
      4  O        -14.2060  -47.4610   18.6780 O.2    14  VAL14      -0.2867
      5  CB       -15.1060  -50.6290   17.9800 C.3    14  VAL14       0.0252
      6  CG1      -16.0130  -51.4830   17.0470 C.3    14  VAL14       0.0019
      7  CG2      -13.7250  -50.4170   17.3150 C.3    14  VAL14       0.0019
      8  N        -11.7300  -49.1500   22.0030 N.3    16  SER16      -0.1217
      9  CA       -10.7890  -50.0840   22.5960 C.3    16  SER16       0.1889
     10  C        -10.0330  -49.4560   23.7660 C.2    16  SER16       0.2288
     11  O         -9.8160  -48.2550   23.8040 O.2    16  SER16      -0.2866
     12  CB        -9.8050  -50.5450   21.5390 C.3    16  SER16       0.2089
     13  OG       -10.4770  -51.4900   20.7040 O.3    16  SER16      -0.2183
     14  N         -5.2790  -54.2430   23.9540 N.3    23  CYS23      -0.1235
     15  CA        -6.2000  -53.2190   23.4640 C.3    23  CYS23       0.1677
     16  C         -7.5930  -53.7630   23.1250 C.2    23  CYS23       0.2270
     17  O         -8.0280  -53.6990   21.9750 O.2    23  CYS23      -0.2867
     18  CB        -5.5780  -52.5960   22.2100 C.3    23  CYS23       0.0956
     19  SG        -5.8960  -50.8580   22.0490 S.3    23  CYS23      -0.0801
     20  N         -9.7610  -58.2080   20.5040 N.3    47  ASN47      -0.1225
     21  CA        -9.1400  -57.2800   19.5670 C.3    47  ASN47       0.1785
     22  C         -9.8290  -57.3440   18.1940 C.2    47  ASN47       0.2597
     23  O        -10.1910  -58.4050   17.7230 O.2    47  ASN47      -0.2718
     24  CB        -7.6480  -57.6110   19.4880 C.3    47  ASN47       0.1169
     25  CG        -6.8690  -56.6030   18.6690 C.2    47  ASN47       0.2627
     26  OD1       -6.9290  -56.6080   17.4540 O.2    47  ASN47      -0.2716
     27  ND2       -6.0860  -55.7850   19.3330 N.am   47  ASN47      -0.0877
     28  N         -9.9920  -56.2180   17.5210 N.am   48  CYS48      -0.1956
     29  CA       -10.6440  -56.1660   16.1860 C.3    48  CYS48       0.1843
     30  C         -9.9610  -56.8950   15.0150 C.2    48  CYS48       0.2625
     31  O        -10.5080  -56.9420   13.8880 O.2    48  CYS48      -0.2714
     32  CB       -10.8550  -54.6820   15.7900 C.3    48  CYS48       0.0997
     33  SG       -12.5110  -54.2350   15.4420 S.3    48  CYS48      -0.0797
     34  N         -8.7740  -57.4630   15.2670 N.am   49  ARG49      -0.1977
     35  CA        -8.0400  -58.2130   14.2200 C.3    49  ARG49       0.1597
     36  C         -8.7870  -59.4070   13.6470 C.2    49  ARG49       0.2287
     37  O         -8.4430  -59.8930   12.5530 O.2    49  ARG49      -0.2864
     38  CB        -6.6350  -58.6140   14.6690 C.3    49  ARG49       0.0334
     39  CG        -6.5770  -59.7530   15.6400 C.3    49  ARG49       0.0492
     40  CD        -5.1240  -60.1960   15.7970 C.3    49  ARG49       0.2205
     41  NE        -4.2350  -59.1550   16.3410 N.pl3  49  ARG49      -0.0865
     42  CZ        -4.1530  -58.7960   17.6190 C.cat  49  ARG49       0.5346
     43  NH1       -4.9590  -59.3350   18.5290 N.pl3  49  ARG49       0.1354
     44  NH2       -3.2960  -57.8320   17.9820 N.pl3  49  ARG49       0.1354
     45  N        -11.4900  -59.4070   12.1940 N.3    51  LEU51      -0.1231
     46  CA       -12.0940  -59.0100   10.8980 C.3    51  LEU51       0.1693
     47  C        -11.1500  -59.2450    9.7210 C.2    51  LEU51       0.2591
     48  O        -11.5730  -59.2490    8.5760 O.2    51  LEU51      -0.2718
     49  CB       -12.5030  -57.5370   10.9220 C.3    51  LEU51       0.0284
     50  CG       -13.6810  -57.1800   11.8590 C.3    51  LEU51       0.0019
     51  CD1      -14.0070  -55.7090   11.7270 C.3    51  LEU51       0.0001
     52  CD2      -14.9140  -57.9670   11.5430 C.3    51  LEU51       0.0001
     53  N         -9.8750  -59.4720   10.0060 N.am   52  GLN52      -0.1979
     54  CA        -8.8890  -59.6970    8.9330 C.3    52  GLN52       0.1601
     55  C         -8.9470  -61.1360    8.3940 C.2    52  GLN52       0.2287
     56  O         -9.5550  -62.0150    9.0020 O.2    52  GLN52      -0.2864
     57  CB        -7.5090  -59.3260    9.4510 C.3    52  GLN52       0.0394
     58  CG        -7.4650  -57.8470    9.8230 C.3    52  GLN52       0.0908
     59  CD        -6.2930  -57.4950   10.6830 C.2    52  GLN52       0.2608
     60  OE1       -5.3430  -58.2590   10.7680 O.2    52  GLN52      -0.2717
     61  NE2       -6.3580  -56.3510   11.3590 N.am   52  GLN52      -0.0878
     62  N         -1.9610  -53.6440    7.6460 N.3    61  VAL61      -0.1245
     63  CA        -2.1210  -54.0830    9.0550 C.3    61  VAL61       0.1561
     64  C         -0.9180  -53.6210    9.9050 C.2    61  VAL61       0.2260
     65  O         -1.0710  -53.1670   11.0460 O.2    61  VAL61      -0.2867
     66  CB        -2.2960  -55.6200    9.1520 C.3    61  VAL61       0.0252
     67  CG1       -2.3640  -56.1020   10.6240 C.3    61  VAL61       0.0019
     68  CG2       -3.5920  -56.0600    8.4510 C.3    61  VAL61       0.0019
     69  N         -1.3160  -50.0110   10.7670 N.3    64  ILE64      -0.1231
     70  CA        -2.2200  -49.8330   11.8930 C.3    64  ILE64       0.1692
     71  C         -1.5080  -50.1370   13.1980 C.2    64  ILE64       0.2591
     72  O         -1.5780  -49.3380   14.0980 O.2    64  ILE64      -0.2718
     73  CB        -3.4890  -50.6800   11.8030 C.3    64  ILE64       0.0266
     74  CG1       -4.2350  -50.3390   10.5310 C.3    64  ILE64       0.0019
     75  CG2       -4.3700  -50.4410   13.0610 C.3    64  ILE64       0.0020
     76  CD1       -5.2210  -51.3420   10.0960 C.3    64  ILE64       0.0001
     77  N         -0.7860  -51.2620   13.2540 N.am   65  ARG65      -0.1980
     78  CA        -0.0570  -51.7040   14.4200 C.3    65  ARG65       0.1597
     79  C          0.8710  -50.6250   14.9320 C.2    65  ARG65       0.2287
     80  O          0.9610  -50.3670   16.1340 O.2    65  ARG65      -0.2864
     81  CB         0.7520  -53.0030   14.0880 C.3    65  ARG65       0.0334
     82  CG         1.3800  -53.6740   15.3200 C.3    65  ARG65       0.0492
     83  CD         2.1080  -55.0260   15.0360 C.3    65  ARG65       0.2205
     84  NE         3.0020  -54.9550   13.8820 N.pl3  65  ARG65      -0.0865
     85  CZ         2.7920  -55.5450   12.7180 C.cat  65  ARG65       0.5346
     86  NH1        1.6950  -56.2640   12.5130 N.pl3  65  ARG65       0.1354
     87  NH2        3.6890  -55.3990   11.7420 N.pl3  65  ARG65       0.1354
     88  N         -1.1820  -47.7440   16.4580 N.3    68  VAL68      -0.1245
     89  CA        -1.7070  -48.1600   17.7600 C.3    68  VAL68       0.1561
     90  C         -0.5920  -48.2370   18.8450 C.2    68  VAL68       0.2260
     91  O         -0.7400  -47.7440   19.9760 O.2    68  VAL68      -0.2867
     92  CB        -2.4890  -49.5280   17.6640 C.3    68  VAL68       0.0252
     93  CG1       -2.8350  -50.0770   19.0470 C.3    68  VAL68       0.0019
     94  CG2       -3.7570  -49.3640   16.8370 C.3    68  VAL68       0.0019
     95  N         -8.7220  -51.2470    4.1210 N.3    78  LEU78      -0.1245
     96  CA        -8.2340  -52.6280    4.0840 C.3    78  LEU78       0.1561
     97  C         -9.3690  -53.6220    3.9230 C.2    78  LEU78       0.2260
     98  O        -10.5360  -53.3010    4.1530 O.2    78  LEU78      -0.2867
     99  CB        -7.3390  -52.9920    5.3000 C.3    78  LEU78       0.0270
    100  CG        -7.9840  -53.3810    6.6300 C.3    78  LEU78       0.0019
    101  CD1       -6.9330  -53.8780    7.5950 C.3    78  LEU78       0.0001
    102  CD2       -8.7180  -52.2000    7.2370 C.3    78  LEU78       0.0001
    103  N        -11.5100  -56.6680    4.8390 N.3    80  ASN80      -0.1240
    104  CA       -12.0110  -57.3260    6.0590 C.3    80  ASN80       0.1653
    105  C        -13.0660  -58.3580    5.6810 C.2    80  ASN80       0.2266
    106  O        -13.5080  -58.4430    4.5020 O.2    80  ASN80      -0.2867
    107  CB       -12.6420  -56.3360    7.0540 C.3    80  ASN80       0.1155
    108  CG       -11.6360  -55.6820    8.0130 C.2    80  ASN80       0.2627
    109  OD1      -12.0110  -54.7970    8.7880 O.2    80  ASN80      -0.2716
    110  ND2      -10.3620  -56.0800    7.9450 N.am   80  ASN80      -0.0877
    111  N        -13.0960  -52.0560    4.0380 N.3    90  ASN90      -0.1240
    112  CA       -13.3240  -51.2560    5.2540 C.3    90  ASN90       0.1653
    113  C        -12.4550  -49.9720    5.1940 C.2    90  ASN90       0.2266
    114  O        -11.2180  -50.0240    5.2410 O.2    90  ASN90      -0.2867
    115  CB       -12.9680  -52.1100    6.4870 C.3    90  ASN90       0.1155
    116  CG       -13.2260  -51.4180    7.8010 C.2    90  ASN90       0.2627
    117  OD1      -13.5950  -50.2120    7.8800 O.2    90  ASN90      -0.2716
    118  ND2      -13.0040  -52.1700    8.8600 N.am   90  ASN90      -0.0877
    119  N        -11.2420  -47.3610    7.1800 N.3    92  LEU92      -0.1245
    120  CA       -11.0630  -47.3950    8.6320 C.3    92  LEU92       0.1561
    121  C        -10.2590  -46.1890    9.1180 C.2    92  LEU92       0.2260
    122  O         -9.2030  -45.8450    8.5290 O.2    92  LEU92      -0.2867
    123  CB       -10.3120  -48.6900    9.0300 C.3    92  LEU92       0.0270
    124  CG        -9.8570  -48.8440   10.4970 C.3    92  LEU92       0.0019
    125  CD1      -11.0830  -48.9740   11.4650 C.3    92  LEU92       0.0001
    126  CD2       -8.8860  -50.0630   10.6310 C.3    92  LEU92       0.0001
    127  N         -8.5420  -45.0880   12.9610 N.3    94  VAL94      -0.1245
    128  CA        -8.2420  -45.4300   14.3510 C.3    94  VAL94       0.1561
    129  C         -7.5920  -44.2020   14.9740 C.2    94  VAL94       0.2260
    130  O         -6.5300  -43.7110   14.4850 O.2    94  VAL94      -0.2867
    131  CB        -7.3420  -46.7040   14.4670 C.3    94  VAL94       0.0252
    132  CG1       -7.0050  -46.9770   15.9220 C.3    94  VAL94       0.0019
    133  CG2       -8.0360  -47.9390   13.8690 C.3    94  VAL94       0.0019
    134  N         -8.7440  -46.0490   22.1630 N.3   107  PHE107     -0.1227
    135  CA        -8.8130  -45.6520   20.7770 C.3   107  PHE107      0.1736
    136  C        -10.2590  -45.6930   20.3530 C.2   107  PHE107      0.2595
    137  O        -11.0410  -46.4970   20.8850 O.2   107  PHE107     -0.2718
    138  CB        -8.0320  -46.6280   19.8890 C.3   107  PHE107      0.0547
    139  CG        -6.5090  -46.5080   19.9980 C.ar  107  PHE107     -0.0202
    140  CD1       -5.7970  -45.6460   19.1530 C.ar  107  PHE107     -0.0042
    141  CD2       -5.7990  -47.2800   20.9250 C.ar  107  PHE107     -0.0042
    142  CE1       -4.4020  -45.5630   19.2290 C.ar  107  PHE107     -0.0003
    143  CE2       -4.4080  -47.1960   21.0130 C.ar  107  PHE107     -0.0003
    144  CZ        -3.7060  -46.3350   20.1610 C.ar  107  PHE107     -0.0000
    145  N        -10.6240  -44.8560   19.3870 N.am  108  ILE108     -0.1966
    146  CA       -11.9040  -45.0400   18.6850 C.3   108  ILE108      0.1727
    147  C        -11.6370  -45.4060   17.2310 C.2   108  ILE108      0.2616
    148  O        -10.7950  -44.7770   16.5450 O.2   108  ILE108     -0.2715
    149  CB       -12.8910  -43.8260   18.8450 C.3   108  ILE108      0.0290
    150  CG1      -14.0980  -43.9840   17.8950 C.3   108  ILE108      0.0022
    151  CG2      -12.2060  -42.4920   18.5690 C.3   108  ILE108      0.0023
    152  CD1      -15.3310  -43.1530   18.2880 C.3   108  ILE108      0.0001
    153  N        -12.2780  -46.4810   16.8050 N.am  109  GLY109     -0.1955
    154  CA       -12.1460  -47.0160   15.4330 C.3   109  GLY109      0.1869
    155  C        -13.4740  -46.7450   14.7310 C.2   109  GLY109      0.2309
    156  O        -14.5370  -47.0240   15.2960 O.2   109  GLY109     -0.2863
    157  N        -15.5310  -47.3580   11.1450 N.3   111  GLN111     -0.1245
    158  CA       -15.5180  -48.2080    9.9490 C.3   111  GLN111      0.1566
    159  C        -16.6030  -47.7690    8.9910 C.2   111  GLN111      0.2260
    160  O        -17.7100  -47.4370    9.4030 O.2   111  GLN111     -0.2867
    161  CB       -15.7550  -49.6770   10.3120 C.3   111  GLN111      0.0367
    162  CG       -14.6630  -50.3050   11.2390 C.3   111  GLN111      0.0905
    163  CD       -14.9610  -50.1760   12.7090 C.2   111  GLN111      0.2608
    164  OE1      -16.0380  -49.7010   13.1070 O.2   111  GLN111     -0.2717
    165  NE2      -14.0010  -50.5780   13.5440 N.am  111  GLN111     -0.0878
@<TRIPOS>BOND
     1    97    96    1
     2    97    98    2
     3   111   112    1
     4    96    95    1
     5    96    99    1
     6   106   105    2
     7   103   104    1
     8   113   114    2
     9   113   112    1
    10   112   115    1
    11    99   100    1
    12   105   104    1
    13   104   107    1
    14   115   116    1
    15   100   102    1
    16   100   101    1
    17   107   108    1
    18   119   120    1
    19    62    63    1
    20   116   117    2
    21   116   118   am
    22   110   108   am
    23   108   109    2
    24    55    54    1
    25    55    56    2
    26    68    66    1
    27   122   121    2
    28    48    47    2
    29   120   123    1
    30   120   121    1
    31    54    57    1
    32    54    53    1
    33   159   160    2
    34   159   158    1
    35   123   124    1
    36    63    66    1
    37    63    64    1
    38    66    67    1
    39    57    58    1
    40    47    53   am
    41    47    46    1
    42    58    59    1
    43    64    65    2
    44   158   161    1
    45   158   157    1
    46    76    74    1
    47   161   162    1
    48   124   126    1
    49   124   125    1
    50    74    73    1
    51    59    60    2
    52    59    61   am
    53    69    70    1
    54    46    49    1
    55    46    45    1
    56    49    50    1
    57   162   163    1
    58    52    50    1
    59    51    50    1
    60    87    85    1
    61    73    70    1
    62    73    75    1
    63    70    71    1
    64    86    85    1
    65    37    36    2
    66   163   164    2
    67   163   165   am
    68    85    84    2
    69   127   128    1
    70    71    77   am
    71    71    72    2
    72    77    78    1
    73    36    35    1
    74   133   131    1
    75    84    83    1
    76    31    30    2
    77    81    78    1
    78    81    82    1
    79    35    38    1
    80    35    34    1
    81   128   131    1
    82   128   129    1
    83    78    79    1
    84   131   132    1
    85   130   129    2
    86    38    39    1
    87   155   156    2
    88   155   154    1
    89    79    80    2
    90    30    34   am
    91    30    29    1
    92    83    82    1
    93   154   153    1
    94    33    32    1
    95    39    40    1
    96    32    29    1
    97    40    41    1
    98    29    28    1
    99    41    42    2
   100    88    89    1
   101   148   147    2
   102   153   147   am
   103    94    92    1
   104     6     5    1
   105     1     2    1
   106   147   146    1
   107     7     5    1
   108    26    25    2
   109    28    22   am
   110    42    44    1
   111    42    43    1
   112    92    89    1
   113    92    93    1
   114    23    22    2
   115    89    90    1
   116   150   152    1
   117   150   149    1
   118     5     2    1
   119    22    21    1
   120     2     3    1
   121   151   149    1
   122    25    27   am
   123    25    24    1
   124     4     3    2
   125   146   149    1
   126   146   145    1
   127    90    91    2
   128   140   142   ar
   129   140   139   ar
   130   142   144   ar
   131   145   136   am
   132    24    21    1
   133    21    20    1
   134   138   139    1
   135   138   135    1
   136   139   141   ar
   137   144   143   ar
   138   136   135    1
   139   136   137    2
   140    13    12    1
   141   135   134    1
   142   141   143   ar
   143    12     9    1
   144    17    16    2
   145     8     9    1
   146    19    18    1
   147    18    15    1
   148     9    10    1
   149    16    15    1
   150    15    14    1
   151    10    11    2
