@<TRIPOS>MOLECULE
tmp/2z6iB00.pdb
 180 165 0 0 0
SMALL
GASTEIGER

@<TRIPOS>ATOM
      1  N          1.0060   34.0460   12.9740 N.3    17  GLY17      -0.1210
      2  CA         2.4520   34.1430   13.1900 C.3    17  GLY17       0.1956
      3  C          3.1070   35.2530   12.3920 C.2    17  GLY17       0.2612
      4  O          2.6880   35.5460   11.2690 O.2    17  GLY17      -0.2717
      5  N          4.1190   35.8870   12.9840 N.am   18  GLY18      -0.1956
      6  CA         4.8910   36.8850   12.2660 C.3    18  GLY18       0.1869
      7  C          5.5040   36.2070   11.0660 C.2    18  GLY18       0.2309
      8  O          6.0280   35.0920   11.1730 O.2    18  GLY18      -0.2863
      9  N          7.8370   37.3500    7.5790 N.3    19  ALA19      -0.1245
     10  CA         8.4810   38.3800    6.7560 C.3    19  ALA19       0.1562
     11  C          7.7160   38.5710    5.4450 C.2    19  ALA19       0.2260
     12  O          7.3320   37.5910    4.8120 O.2    19  ALA19      -0.2867
     13  CB         9.9310   38.0110    6.4780 C.3    19  ALA19       0.0290
     14  N          4.8620   38.7860    4.2460 N.3    21  VAL21      -0.1245
     15  CA         3.4460   38.4390    4.2360 C.3    21  VAL21       0.1561
     16  C          2.6640   39.1210    5.3640 C.2    21  VAL21       0.2260
     17  O          1.5350   39.5630    5.1610 O.2    21  VAL21      -0.2867
     18  CB         3.2240   36.9040    4.3030 C.3    21  VAL21       0.0252
     19  CG1        1.7340   36.5810    4.3860 C.3    21  VAL21       0.0019
     20  CG2        3.8600   36.2150    3.0970 C.3    21  VAL21       0.0019
     21  N          5.3350   40.9480   10.7290 N.3    40  GLY40      -0.1225
     22  CA         6.6600   40.3820   10.4620 C.3    40  GLY40       0.1811
     23  C          7.6830   41.4870   10.2480 C.2    40  GLY40       0.2280
     24  O          7.7060   42.1090    9.1870 O.2    40  GLY40      -0.2866
     25  N         10.9110   41.0610    9.9550 N.3    42  GLY42      -0.1225
     26  CA        11.9240   40.5530    9.0240 C.3    42  GLY42       0.1811
     27  C         13.2380   41.3030    9.1230 C.2    42  GLY42       0.2280
     28  O         13.7060   41.6210   10.2180 O.2    42  GLY42      -0.2866
     29  N          6.9130   40.6690   15.3740 N.3    67  ASN67      -0.1240
     30  CA         7.9450   39.6490   15.3710 C.3    67  ASN67       0.1653
     31  C          9.2880   40.2560   14.9530 C.2    67  ASN67       0.2266
     32  O          9.4200   40.8070   13.8550 O.2    67  ASN67      -0.2867
     33  CB         7.5540   38.5010   14.4340 C.3    67  ASN67       0.1155
     34  CG         8.6560   37.4590   14.2880 C.2    67  ASN67       0.2627
     35  OD1        9.4140   37.4810   13.3120 O.2    67  ASN67      -0.2716
     36  ND2        8.7900   36.5830   15.2790 N.am   67  ASN67      -0.0877
     37  N         12.1030   35.5300   16.6340 N.3    92  GLY92      -0.1225
     38  CA        12.5160   34.3350   15.9310 C.3    92  GLY92       0.1811
     39  C         13.9830   34.1480   16.2170 C.2    92  GLY92       0.2280
     40  O         14.3810   33.9090   17.3680 O.2    92  GLY92      -0.2866
     41  N         10.3180   32.4310   20.1970 N.3   112  VAL112     -0.1245
     42  CA        10.1700   31.1340   19.5160 C.3   112  VAL112      0.1561
     43  C         11.3480   30.2480   19.9310 C.2   112  VAL112      0.2260
     44  O         12.5130   30.6600   19.8270 O.2   112  VAL112     -0.2867
     45  CB        10.1470   31.2550   17.9490 C.3   112  VAL112      0.0252
     46  CG1       10.0970   29.8700   17.3130 C.3   112  VAL112      0.0019
     47  CG2        8.9570   32.0660   17.4630 C.3   112  VAL112      0.0019
     48  N          7.7920   25.9390   17.9980 N.3   132  GLU132     -0.1245
     49  CA         7.5420   25.7770   16.5570 C.3   132  GLU132      0.1567
     50  C          8.1510   24.5020   15.9970 C.2   132  GLU132      0.2260
     51  O          9.3700   24.3330   16.0150 O.2   132  GLU132     -0.2867
     52  CB         8.0860   26.9690   15.7630 C.3   132  GLU132      0.0388
     53  CG         7.6920   26.9300   14.3230 C.3   132  GLU132      0.1160
     54  CD         8.3620   28.0220   13.5210 C.2   132  GLU132      0.3649
     55  OE1        9.5390   27.8370   13.1380 O.co2 132  GLU132     -0.2457
     56  OE2        7.7150   29.0620   13.2890 O.co2 132  GLU132     -0.2457
     57  N          7.8030   21.1320   10.8310 N.3   134  GLU134     -0.1231
     58  CA         6.8170   21.1940    9.7470 C.3   134  GLU134      0.1699
     59  C          6.4290   22.6360    9.3570 C.2   134  GLU134      0.2592
     60  O          5.8210   22.8480    8.3120 O.2   134  GLU134     -0.2718
     61  CB         5.5550   20.3810   10.0860 C.3   134  GLU134      0.0402
     62  CG         4.9400   20.6860   11.4590 C.3   134  GLU134      0.1161
     63  CD         5.4510   19.7520   12.5500 C.2   134  GLU134      0.3649
     64  OE1        4.7110   18.8250   12.9570 O.co2 134  GLU134     -0.2457
     65  OE2        6.5920   19.9370   13.0200 O.co2 134  GLU134     -0.2457
     66  N          6.7400   23.6060   10.2170 N.am  135  ALA135     -0.1966
     67  CA         6.4410   25.0320    9.9500 C.3   135  ALA135      0.1728
     68  C          7.0940   25.5400    8.6580 C.2   135  ALA135      0.2617
     69  O          8.1110   24.9980    8.1960 O.2   135  ALA135     -0.2715
     70  CB         6.8730   25.9020   11.1420 C.3   135  ALA135      0.0334
     71  N          6.4990   26.5640    8.0530 N.am  136  GLY136     -0.1940
     72  CA         7.1680   27.2530    6.9600 C.3   136  GLY136      0.2014
     73  C          8.3520   28.0720    7.4660 C.2   136  GLY136      0.2639
     74  O          8.4160   28.4540    8.6350 O.2   136  GLY136     -0.2714
     75  N          9.2970   28.3480    6.5710 N.am  137  GLY137     -0.1939
     76  CA        10.4150   29.2260    6.9020 C.3   137  GLY137      0.2014
     77  C         11.6140   28.5570    7.5430 C.2   137  GLY137      0.2638
     78  O         11.8520   27.3520    7.3670 O.2   137  GLY137     -0.2714
     79  N         12.3780   29.3370    8.3000 N.am  138  HIS138     -0.1973
     80  CA        13.5380   28.7910    9.0040 C.3   138  HIS138      0.1656
     81  C         13.0850   27.8430   10.1050 C.2   138  HIS138      0.2291
     82  O         12.3280   28.2390   10.9970 O.2   138  HIS138     -0.2864
     83  CB        14.4040   29.9210    9.5630 C.3   138  HIS138      0.0771
     84  CG        15.0780   30.7320    8.5000 C.ar  138  HIS138      0.0820
     85  ND1       14.4810   31.8200    7.9020 N.ar  138  HIS138     -0.2267
     86  CD2       16.2970   30.6050    7.9220 C.ar  138  HIS138      0.1154
     87  CE1       15.3000   32.3240    6.9940 C.ar  138  HIS138      0.1986
     88  NE2       16.4100   31.6100    6.9930 N.ar  138  HIS138     -0.2212
     89  N          3.0730   25.9520   17.4220 N.3   161  ALA161     -0.1231
     90  CA         3.1310   26.4790   16.0630 C.3   161  ALA161      0.1694
     91  C          3.7220   25.4020   15.1660 C.2   161  ALA161      0.2593
     92  O          4.6000   24.6570   15.5940 O.2   161  ALA161     -0.2718
     93  CB         3.9720   27.7550   16.0050 C.3   161  ALA161      0.0304
     94  N          3.2190   25.3170   13.9440 N.am  162  GLY162     -0.1942
     95  CA         3.7630   24.4110   12.9310 C.3   162  GLY162      0.2014
     96  C          2.8370   23.2390   12.6920 C.2   162  GLY162      0.2639
     97  O          2.7200   22.3570   13.5300 O.2   162  GLY162     -0.2714
     98  N          2.1620   23.2510   11.5450 N.am  163  GLY163     -0.1939
     99  CA         1.3310   22.1280   11.1150 C.3   163  GLY163      0.2014
    100  C         -0.1430   22.2950   11.4350 C.2   163  GLY163      0.2638
    101  O         -0.9310   21.3610   11.2830 O.2   163  GLY163     -0.2714
    102  N         -0.5320   23.4880   11.8620 N.am  164  ILE164     -0.1977
    103  CA        -1.9070   23.7100   12.2730 C.3   164  ILE164      0.1596
    104  C         -2.6300   24.5510   11.2300 C.2   164  ILE164      0.2287
    105  O         -2.2470   25.6980   10.9760 O.2   164  ILE164     -0.2864
    106  CB        -2.0020   24.3430   13.6880 C.3   164  ILE164      0.0276
    107  CG1       -1.3750   23.4000   14.7280 C.3   164  ILE164      0.0022
    108  CG2       -3.4700   24.6720   14.0370 C.3   164  ILE164      0.0022
    109  CD1       -1.0980   24.0350   16.0880 C.3   164  ILE164      0.0001
    110  N         -0.3520   29.0990   17.0780 N.3   181  GLN181     -0.1231
    111  CA         0.0930   30.0880   16.1180 C.3   181  GLN181      0.1698
    112  C          0.0250   29.4650   14.7210 C.2   181  GLN181      0.2592
    113  O          0.4960   28.3500   14.5210 O.2   181  GLN181     -0.2718
    114  CB         1.5090   30.5540   16.4580 C.3   181  GLN181      0.0381
    115  CG         2.1470   31.3920   15.3880 C.3   181  GLN181      0.0905
    116  CD         3.3620   32.1560   15.8590 C.2   181  GLN181      0.2608
    117  OE1        3.2480   33.2190   16.4690 O.2   181  GLN181     -0.2717
    118  NE2        4.5440   31.6530   15.5190 N.am  181  GLN181     -0.0878
    119  N         -0.5890   30.1810   13.7790 N.am  182  VAL182     -0.1966
    120  CA        -0.8490   29.7040   12.4150 C.3   182  VAL182      0.1727
    121  C         -0.1640   30.6240   11.3880 C.2   182  VAL182      0.2617
    122  O         -0.3080   31.8350   11.4420 O.2   182  VAL182     -0.2715
    123  CB        -2.3950   29.6230   12.1480 C.3   182  VAL182      0.0290
    124  CG1       -2.7230   29.2900   10.6770 C.3   182  VAL182      0.0023
    125  CG2       -3.0530   28.6120   13.0880 C.3   182  VAL182      0.0023
    126  N          0.5990   30.0380   10.4740 N.am  183  GLY183     -0.1940
    127  CA         1.2910   30.8230    9.4600 C.3   183  GLY183      0.2014
    128  C          0.7240   30.5660    8.0850 C.2   183  GLY183      0.2639
    129  O         -0.0050   31.3900    7.5230 O.2   183  GLY183     -0.2714
    130  N          1.0270   29.3820    7.5640 N.am  184  THR184     -0.1950
    131  CA         0.6670   29.0100    6.1970 C.3   184  THR184      0.1897
    132  C         -0.7750   29.3590    5.7990 C.2   184  THR184      0.2313
    133  O         -0.9990   29.9530    4.7420 O.2   184  THR184     -0.2863
    134  CB         0.9720   27.5130    5.9510 C.3   184  THR184      0.1794
    135  OG1        2.3820   27.3090    6.0770 O.3   184  THR184     -0.2208
    136  CG2        0.5360   27.0820    4.5440 C.3   184  THR184      0.0378
    137  N         -1.6290   32.9850    5.0180 N.3   187  VAL187     -0.1245
    138  CA        -1.0840   33.5350    3.7580 C.3   187  VAL187      0.1561
    139  C         -2.1600   33.6970    2.6950 C.2   187  VAL187      0.2260
    140  O         -2.0780   34.6030    1.8740 O.2   187  VAL187     -0.2867
    141  CB         0.0670   32.6860    3.1990 C.3   187  VAL187      0.0252
    142  CG1        0.6360   33.3150    1.9600 C.3   187  VAL187      0.0019
    143  CG2        1.1520   32.4980    4.2650 C.3   187  VAL187      0.0019
    144  N          1.4690   33.4500   -5.3560 N.3   198  TYR198     -0.1241
    145  CA         1.9520   32.8560   -4.1000 C.3   198  TYR198      0.1605
    146  C          0.8280   32.0800   -3.4250 C.2   198  TYR198      0.2264
    147  O          1.0190   30.9410   -2.9690 O.2   198  TYR198     -0.2867
    148  CB         2.4440   33.9690   -3.1560 C.3   198  TYR198      0.0534
    149  CG         3.3780   33.5180   -2.0480 C.ar  198  TYR198     -0.0201
    150  CD1        4.7280   33.8530   -2.0880 C.ar  198  TYR198     -0.0009
    151  CD2        2.9060   32.7930   -0.9510 C.ar  198  TYR198     -0.0009
    152  CE1        5.6000   33.4560   -1.0670 C.ar  198  TYR198      0.0417
    153  CE2        3.7700   32.3790    0.0710 C.ar  198  TYR198      0.0417
    154  CZ         5.1180   32.7160   -0.0040 C.ar  198  TYR198      0.1957
    155  OH         5.9800   32.3380    0.9890 O.3   198  TYR198     -0.2866
    156  N         12.3150   35.7900   -1.0690 N.3   257  LEU257     -0.1245
    157  CA        10.9830   35.7990   -0.4660 C.3   257  LEU257      0.1561
    158  C         10.1830   37.0040   -0.9600 C.2   257  LEU257      0.2260
    159  O          9.0140   36.8730   -1.3190 O.2   257  LEU257     -0.2867
    160  CB        11.0580   35.7930    1.0660 C.3   257  LEU257      0.0270
    161  CG         9.7510   35.7700    1.8760 C.3   257  LEU257      0.0019
    162  CD1        8.9040   34.5100    1.6020 C.3   257  LEU257      0.0001
    163  CD2       10.0530   35.9160    3.3700 C.3   257  LEU257      0.0001
    164  N          6.4720   27.9990    3.0700 N.3   272  ALA272     -0.1231
    165  CA         5.1830   27.4680    3.4690 C.3   272  ALA272      0.1694
    166  C          5.4510   26.1880    4.2450 C.2   272  ALA272      0.2592
    167  O          6.4950   25.5730    4.0750 O.2   272  ALA272     -0.2718
    168  CB         4.3380   27.1580    2.2360 C.3   272  ALA272      0.0304
    169  N          4.5130   25.8090    5.1000 N.am  273  GLY273     -0.1957
    170  CA         4.6490   24.5980    5.9140 C.3   273  GLY273      0.1869
    171  C          4.1280   23.3480    5.2240 C.2   273  GLY273      0.2309
    172  O          3.4340   23.4140    4.1990 O.2   273  GLY273     -0.2863
    173  N          1.7650   21.6060    6.0930 N.3   275  ILE275     -0.1245
    174  CA         0.2920   21.6640    6.1220 C.3   275  ILE275      0.1561
    175  C         -0.3300   22.4140    4.8880 C.2   275  ILE275      0.2260
    176  O         -1.5550   22.4690    4.7480 O.2   275  ILE275     -0.2867
    177  CB        -0.2450   22.1780    7.5180 C.3   275  ILE275      0.0252
    178  CG1       -1.6490   21.6490    7.8150 C.3   275  ILE275      0.0019
    179  CG2       -0.1720   23.7190    7.6400 C.3   275  ILE275      0.0019
    180  CD1       -1.7140   20.1720    8.0550 C.3   275  ILE275      0.0001
@<TRIPOS>BOND
     1   144   145    1
     2   145   146    1
     3   145   148    1
     4   146   147    2
     5   148   149    1
     6   150   149   ar
     7   150   152   ar
     8   149   151   ar
     9   159   158    2
    10   156   157    1
    11   152   154   ar
    12   158   157    1
    13   151   153   ar
    14   157   160    1
    15   154   153   ar
    16   154   155    1
    17   160   161    1
    18   162   161    1
    19   140   139    2
    20   161   163    1
    21   142   141    1
    22   168   165    1
    23   139   138    1
    24   164   165    1
    25    20    18    1
    26   141   138    1
    27   141   143    1
    28   165   166    1
    29   138   137    1
    30   167   166    2
    31   172   171    2
    32    15    14    1
    33    15    18    1
    34    15    16    1
    35   166   169   am
    36    18    19    1
    37   136   134    1
    38   133   132    2
    39   176   175    2
    40    12    11    2
    41   175   174    1
    42   169   170    1
    43    17    16    2
    44   171   170    1
    45    11    10    1
    46   132   131    1
    47   134   135    1
    48   134   131    1
    49   173   174    1
    50   174   177    1
    51   131   130    1
    52    13    10    1
    53    75    76    1
    54    75    73   am
    55    10     9    1
    56    76    77    1
    57    72    73    1
    58    72    71    1
    59    88    87   ar
    60    88    86   ar
    61    87    85   ar
    62    78    77    2
    63    73    74    2
    64   177   179    1
    65   177   178    1
    66   129   128    2
    67    77    79   am
    68   130   128   am
    69   178   180    1
    70    85    84   ar
    71    86    84   ar
    72    71    68   am
    73   128   127    1
    74    69    68    2
    75    79    80    1
    76    60    59    2
    77    84    83    1
    78    68    67    1
    79    80    83    1
    80    80    81    1
    81    26    27    1
    82    26    25    1
    83    27    28    2
    84    24    23    2
    85    59    58    1
    86    59    66   am
    87   127   126    1
    88    58    61    1
    89    58    57    1
    90    67    66    1
    91    67    70    1
    92    61    62    1
    93    81    82    2
    94    23    22    1
    95    22    21    1
    96   126   121   am
    97   124   123    1
    98   105   104    2
    99     7     8    2
   100     7     6    1
   101    99   100    1
   102    99    98    1
   103   104   103    1
   104     4     3    2
   105   101   100    2
   106   121   122    2
   107   121   120    1
   108   100   102   am
   109    62    63    1
   110    98    96   am
   111   102   103    1
   112   123   120    1
   113   123   125    1
   114     6     5    1
   115   103   106    1
   116     3     5   am
   117     3     2    1
   118   120   119    1
   119    63    64   ar
   120    63    65   ar
   121    96    95    1
   122    96    97    2
   123    95    94    1
   124     1     2    1
   125    55    54   ar
   126    56    54   ar
   127    35    34    2
   128    54    53    1
   129   106   108    1
   130   106   107    1
   131   119   112   am
   132    32    31    2
   133    94    91   am
   134    34    33    1
   135    34    36   am
   136    53    52    1
   137    33    30    1
   138   113   112    2
   139   112   111    1
   140   107   109    1
   141    31    30    1
   142    91    92    2
   143    91    90    1
   144    30    29    1
   145   115   116    1
   146   115   114    1
   147   118   116   am
   148    52    49    1
   149   116   117    2
   150    38    39    1
   151    38    37    1
   152    50    51    2
   153    50    49    1
   154    93    90    1
   155    90    89    1
   156   111   114    1
   157   111   110    1
   158    39    40    2
   159    49    48    1
   160    46    45    1
   161    47    45    1
   162    45    42    1
   163    42    43    1
   164    42    41    1
   165    44    43    2
