@<TRIPOS>MOLECULE
tmp/2z6jA01.pdb
 140 129 0 0 0
SMALL
GASTEIGER

@<TRIPOS>ATOM
      1  N         11.2010   -4.4250   15.4840 N.3    21  ALA21      -0.1245
      2  CA        12.3240   -5.3440   15.2900 C.3    21  ALA21       0.1562
      3  C         13.1530   -5.5280   16.5710 C.2    21  ALA21       0.2260
      4  O         13.6660   -4.5520   17.1280 O.2    21  ALA21      -0.2867
      5  CB        13.2220   -4.8340   14.1570 C.3    21  ALA21       0.0290
      6  N         13.8020   -8.4440   10.6090 N.3    45  ASN45      -0.1240
      7  CA        14.5780   -9.1630    9.5930 C.3    45  ASN45       0.1653
      8  C         14.8260  -10.6330   10.0000 C.2    45  ASN45       0.2266
      9  O         15.8080  -11.2420    9.5730 O.2    45  ASN45      -0.2867
     10  CB        15.9180   -8.4490    9.3450 C.3    45  ASN45       0.1155
     11  CG        15.7490   -7.0860    8.7090 C.2    45  ASN45       0.2627
     12  OD1       15.4480   -6.9750    7.5200 O.2    45  ASN45      -0.2716
     13  ND2       15.9720   -6.0350    9.4900 N.am   45  ASN45      -0.0877
     14  N          7.7210   -6.7020    8.2520 N.3    71  MET71      -0.1245
     15  CA         8.5980   -5.6400    7.7710 C.3    71  MET71       0.1570
     16  C          9.0300   -6.0220    6.3590 C.2    71  MET71       0.2261
     17  O          9.7230   -7.0130    6.1810 O.2    71  MET71      -0.2867
     18  CB         9.7830   -5.4990    8.7280 C.3    71  MET71       0.0387
     19  CG        10.4340   -4.1460    8.7540 C.3    71  MET71       0.0595
     20  SD        11.6710   -3.9150    7.4540 S.3    71  MET71      -0.1393
     21  CE        12.8080   -5.2670    7.7510 C.3    71  MET71       0.0692
     22  N         11.0920   -5.0120    3.9930 N.3    73  LEU73      -0.1245
     23  CA        12.4780   -5.0240    3.5190 C.3    73  LEU73       0.1561
     24  C         13.1920   -6.3080    3.9890 C.2    73  LEU73       0.2260
     25  O         14.3600   -6.5560    3.6400 O.2    73  LEU73      -0.2867
     26  CB        13.2400   -3.7610    3.9850 C.3    73  LEU73       0.0270
     27  CG        12.7400   -2.3470    3.6200 C.3    73  LEU73       0.0019
     28  CD1       13.5980   -1.2800    4.2710 C.3    73  LEU73       0.0001
     29  CD2       12.6700   -2.0850    2.1130 C.3    73  LEU73       0.0001
     30  N          5.0280   -2.7150    7.3760 N.3    95  GLY95      -0.1210
     31  CA         5.8360   -1.4960    7.3450 C.3    95  GLY95       0.1956
     32  C          7.0290   -1.5950    6.4160 C.2    95  GLY95       0.2612
     33  O          7.4180   -2.6890    6.0270 O.2    95  GLY95      -0.2717
     34  N          7.6060   -0.4380    6.0800 N.am   96  ALA96      -0.1965
     35  CA         8.7700   -0.3050    5.1770 C.3    96  ALA96       0.1732
     36  C          8.5080   -0.6940    3.7170 C.2    96  ALA96       0.2656
     37  O          9.4260   -1.0880    2.9890 O.2    96  ALA96      -0.2711
     38  CB         9.9890   -1.0300    5.7320 C.3    96  ALA96       0.0334
     39  N          7.2610   -0.5850    3.2780 N.am   97  GLY97      -0.1716
     40  CA         6.9480   -0.8610    1.8810 C.2    97  GLY97       0.1480
     41  C          5.4830   -1.0790    1.5500 C.2    97  GLY97       0.2820
     42  O          4.6000   -0.9150    2.4020 O.2    97  GLY97      -0.2669
     43  N          5.2470   -1.4740    0.3020 N.am   98  ASN98      -0.1937
     44  CA         3.9100   -1.7020   -0.2190 C.3    98  ASN98       0.1691
     45  C          3.4730   -3.1720   -0.1090 C.2    98  ASN98       0.2292
     46  O          4.0580   -4.0350   -0.7620 O.2    98  ASN98      -0.2864
     47  CB         3.8310   -1.2250   -1.6820 C.3    98  ASN98       0.1181
     48  CG         2.4070   -1.0440   -2.1590 C.2    98  ASN98       0.2629
     49  OD1        1.4690   -1.5700   -1.5670 O.2    98  ASN98      -0.2716
     50  ND2        2.2390   -0.3030   -3.2290 N.am   98  ASN98      -0.0877
     51  N          1.1240    0.3510    7.4570 N.3   116  VAL116     -0.1245
     52  CA         1.6250    1.6950    7.7730 C.3   116  VAL116      0.1561
     53  C          1.7340    2.4360    6.4390 C.2   116  VAL116      0.2260
     54  O          2.1560    1.8560    5.4400 O.2   116  VAL116     -0.2867
     55  CB         2.9760    1.6790    8.5490 C.3   116  VAL116      0.0252
     56  CG1        3.5050    3.0990    8.7770 C.3   116  VAL116      0.0019
     57  CG2        2.8120    0.9630    9.8910 C.3   116  VAL116      0.0019
     58  N          2.9550    6.2620    4.5510 N.3   118  PRO118     -0.2116
     59  CA         3.6850    7.5250    4.6640 C.3   118  PRO118      0.1372
     60  C          3.0070    8.7210    3.9670 C.2   118  PRO118      0.2244
     61  O          3.4550    9.8550    4.1450 O.2   118  PRO118     -0.2868
     62  CB         5.0160    7.2050    3.9690 C.3   118  PRO118      0.0268
     63  CG         4.6360    6.2170    2.8910 C.3   118  PRO118      0.0207
     64  CD         3.3550    5.5170    3.3400 C.3   118  PRO118      0.0892
     65  N         -0.8170    6.9110   -0.7880 N.3   122  LEU122     -0.1245
     66  CA        -0.6670    5.5050   -0.4130 C.3   122  LEU122      0.1561
     67  C         -1.8070    5.0120    0.4950 C.2   122  LEU122      0.2260
     68  O         -2.2280    3.8610    0.3910 O.2   122  LEU122     -0.2867
     69  CB         0.7140    5.2450    0.1910 C.3   122  LEU122      0.0270
     70  CG         1.8420    5.0280   -0.8420 C.3   122  LEU122      0.0019
     71  CD1        2.1030    6.2490   -1.7270 C.3   122  LEU122      0.0001
     72  CD2        3.1510    4.5740   -0.1900 C.3   122  LEU122      0.0001
     73  N          2.1130    6.9260   10.3860 N.3   137  GLU137     -0.1245
     74  CA         3.3150    7.1160   11.2050 C.3   137  GLU137      0.1567
     75  C          4.1080    8.3680   10.8490 C.2   137  GLU137      0.2260
     76  O          4.5910    8.5140    9.7260 O.2   137  GLU137     -0.2867
     77  CB         4.2320    5.8830   11.1580 C.3   137  GLU137      0.0388
     78  CG         5.2380    5.8260   12.3160 C.3   137  GLU137      0.1160
     79  CD         6.3420    4.7790   12.1260 C.2   137  GLU137      0.3649
     80  OE1        7.3580    5.0850   11.4420 O.co2 137  GLU137     -0.2457
     81  OE2        6.1960    3.6540   12.6880 O.co2 137  GLU137     -0.2457
     82  N         12.9880    4.5920   14.7680 N.3   143  GLY143     -0.1210
     83  CA        13.1920    3.6740   13.6510 C.3   143  GLY143      0.1956
     84  C         13.1510    4.3120   12.2740 C.2   143  GLY143      0.2612
     85  O         13.4650    5.4870   12.1200 O.2   143  GLY143     -0.2717
     86  N         12.7260    3.5370   11.2780 N.am  144  HIS144     -0.1961
     87  CA        12.7700    3.9600    9.8720 C.3   144  HIS144      0.1787
     88  C         11.5720    4.8380    9.4780 C.2   144  HIS144      0.2620
     89  O         10.4250    4.4050    9.5740 O.2   144  HIS144     -0.2715
     90  CB        12.9230    2.7250    8.9570 C.3   144  HIS144      0.0785
     91  CG        12.7400    3.0160    7.5010 C.ar  144  HIS144      0.0821
     92  ND1       13.4920    3.9570    6.8280 N.ar  144  HIS144     -0.2267
     93  CD2       11.9070    2.4700    6.5840 C.ar  144  HIS144      0.1154
     94  CE1       13.1130    3.9910    5.5610 C.ar  144  HIS144      0.1986
     95  NE2       12.1520    3.0990    5.3880 N.ar  144  HIS144     -0.2212
     96  N         11.8560    6.0690    9.0310 N.am  145  ILE145     -0.1963
     97  CA        10.8390    7.1340    8.9460 C.3   145  ILE145      0.1727
     98  C         10.6300    7.7660    7.5720 C.2   145  ILE145      0.2616
     99  O         11.5490    7.8150    6.7420 O.2   145  ILE145     -0.2715
    100  CB        11.1300    8.3120    9.9490 C.3   145  ILE145      0.0290
    101  CG1       12.5310    8.9210    9.7080 C.3   145  ILE145      0.0022
    102  CG2       10.9170    7.8690   11.4090 C.3   145  ILE145      0.0023
    103  CD1       12.6560   10.3720   10.1290 C.3   145  ILE145      0.0001
    104  N          9.4170    8.2860    7.3700 N.am  146  GLY146     -0.1955
    105  CA         9.0820    9.1080    6.2030 C.3   146  GLY146      0.1869
    106  C          9.4000   10.5640    6.4570 C.2   146  GLY146      0.2309
    107  O         10.2210   10.8720    7.3150 O.2   146  GLY146     -0.2863
    108  N         18.6700    3.8840    4.1890 N.3   224  HIS224     -0.1241
    109  CA        17.3590    3.9590    4.8450 C.3   224  HIS224      0.1621
    110  C         17.3890    4.8390    6.0900 C.2   224  HIS224      0.2264
    111  O         17.9070    4.4290    7.1350 O.2   224  HIS224     -0.2867
    112  CB        16.8520    2.5610    5.2210 C.3   224  HIS224      0.0745
    113  CG        16.5820    1.6820    4.0430 C.ar  224  HIS224      0.0817
    114  ND1       17.1390    0.4290    3.9080 N.ar  224  HIS224     -0.2268
    115  CD2       15.8280    1.8810    2.9360 C.ar  224  HIS224      0.1154
    116  CE1       16.7340   -0.1100    2.7710 C.ar  224  HIS224      0.1986
    117  NE2       15.9400    0.7530    2.1610 N.ar  224  HIS224     -0.2212
    118  N         16.9220    6.4060    9.4050 N.3   226  VAL226     -0.1245
    119  CA        16.4920    5.9020   10.6970 C.3   226  VAL226      0.1561
    120  C         16.6310    7.0240   11.7230 C.2   226  VAL226      0.2260
    121  O         17.6510    7.7340   11.7210 O.2   226  VAL226     -0.2867
    122  CB        17.3480    4.6700   11.1450 C.3   226  VAL226      0.0252
    123  CG1       17.2110    4.4310   12.6360 C.3   226  VAL226      0.0019
    124  CG2       16.9480    3.4110   10.3760 C.3   226  VAL226      0.0019
    125  N         21.2710   -2.6750   15.2660 N.3   253  LEU253     -0.1245
    126  CA        20.1380   -2.7400   16.1970 C.3   253  LEU253      0.1561
    127  C         20.2290   -3.9080   17.1970 C.2   253  LEU253      0.2260
    128  O         19.9720   -3.7190   18.3900 O.2   253  LEU253     -0.2867
    129  CB        18.7970   -2.7540   15.4470 C.3   253  LEU253      0.0270
    130  CG        17.5030   -2.7710   16.2740 C.3   253  LEU253      0.0019
    131  CD1       17.3840   -1.5200   17.1170 C.3   253  LEU253      0.0001
    132  CD2       16.2720   -2.9470   15.3800 C.3   253  LEU253      0.0001
    133  N         17.5530    3.1140   18.1830 N.3   268  MET268     -0.1245
    134  CA        16.3160    3.6710   17.6390 C.3   268  MET268      0.1570
    135  C         15.3210    4.0270   18.7610 C.2   268  MET268      0.2261
    136  O         15.0960    3.2460   19.6900 O.2   268  MET268     -0.2867
    137  CB        15.6690    2.7120   16.6270 C.3   268  MET268      0.0387
    138  CG        16.5080    2.4060   15.3800 C.3   268  MET268      0.0595
    139  SD        15.8350    1.0920   14.3150 S.3   268  MET268     -0.1393
    140  CE        17.2310    0.8070   13.2190 C.3   268  MET268      0.0692
@<TRIPOS>BOND
     1    50    48   am
     2    48    47    1
     3    48    49    2
     4    71    70    1
     5    47    44    1
     6    70    72    1
     7    70    69    1
     8    65    66    1
     9    46    45    2
    10    66    69    1
    11    66    67    1
    12    44    45    1
    13    44    43    1
    14    43    41   am
    15    68    67    2
    16    41    40    1
    17    41    42    2
    18    40    39    2
    19    29    27    1
    20   117   116   ar
    21   117   115   ar
    22   116   114   ar
    23    63    64    1
    24    63    62    1
    25   115   113   ar
    26    37    36    2
    27    39    36    1
    28    64    58    1
    29    23    26    1
    30    23    24    1
    31    23    22    1
    32    27    26    1
    33    27    28    1
    34    25    24    2
    35    36    35    1
    36   114   113   ar
    37    60    61    2
    38    60    59    1
    39    62    59    1
    40   113   112    1
    41   108   109    1
    42    58    59    1
    43   109   112    1
    44   109   110    1
    45    35    38    1
    46    35    34    1
    47    95    94   ar
    48    95    93   ar
    49    54    53    2
    50    94    92   ar
    51    33    32    2
    52    34    32   am
    53   110   111    2
    54    17    16    2
    55   105   106    1
    56   105   104    1
    57    16    15    1
    58    32    31    1
    59    53    52    1
    60   106   107    2
    61    93    91   ar
    62    99    98    2
    63    92    91   ar
    64    31    30    1
    65   104    98   am
    66    20    21    1
    67    20    19    1
    68    51    52    1
    69    91    90    1
    70    12    11    2
    71    98    97    1
    72    15    14    1
    73    15    18    1
    74    52    55    1
    75    55    56    1
    76    55    57    1
    77    11    10    1
    78    11    13   am
    79    18    19    1
    80    97    96    1
    81    97   100    1
    82    90    87    1
    83    96    88   am
    84    10     7    1
    85   118   119    1
    86    88    89    2
    87    88    87    1
    88     9     8    2
    89     7     8    1
    90     7     6    1
    91   101   100    1
    92   101   103    1
    93    76    75    2
    94    87    86    1
    95   100   102    1
    96   124   122    1
    97    73    74    1
    98   119   122    1
    99   119   120    1
   100    75    74    1
   101   122   123    1
   102    77    74    1
   103    77    78    1
   104    86    84   am
   105    80    79   ar
   106   121   120    2
   107    85    84    2
   108    79    78    1
   109    79    81   ar
   110    84    83    1
   111   140   139    1
   112    83    82    1
   113     5     2    1
   114   139   138    1
   115   125   126    1
   116     2     1    1
   117     2     3    1
   118   138   137    1
   119   132   130    1
   120   129   126    1
   121   129   130    1
   122   126   127    1
   123   130   131    1
   124     3     4    2
   125   137   134    1
   126   127   128    2
   127   134   133    1
   128   134   135    1
   129   135   136    2
