@<TRIPOS>MOLECULE
tmp/2z6nB00.pdb
 220 209 0 0 0
SMALL
GASTEIGER

@<TRIPOS>ATOM
      1  N         28.2270   23.3470   34.0390 N.3    28  LEU28      -0.1245
      2  CA        29.0640   23.0500   35.1950 C.3    28  LEU28       0.1561
      3  C         28.9900   21.5680   35.5650 C.2    28  LEU28       0.2260
      4  O         30.0070   20.9490   35.8910 O.2    28  LEU28      -0.2867
      5  CB        28.6430   23.9270   36.3780 C.3    28  LEU28       0.0270
      6  CG        29.6420   24.1150   37.5230 C.3    28  LEU28       0.0019
      7  CD1       29.7630   22.8260   38.2990 C.3    28  LEU28       0.0001
      8  CD2       30.9990   24.5470   36.9780 C.3    28  LEU28       0.0001
      9  N         31.0990   19.7780   33.1410 N.3    31  LEU31      -0.1245
     10  CA        32.5270   19.9760   33.3960 C.3    31  LEU31       0.1561
     11  C         32.9910   18.9620   34.4390 C.2    31  LEU31       0.2260
     12  O         33.9820   18.2580   34.2420 O.2    31  LEU31      -0.2867
     13  CB        32.8090   21.3970   33.9130 C.3    31  LEU31       0.0270
     14  CG        34.2800   21.7050   34.2360 C.3    31  LEU31       0.0019
     15  CD1       35.0510   21.9340   32.9390 C.3    31  LEU31       0.0001
     16  CD2       34.3770   22.9410   35.1290 C.3    31  LEU31       0.0001
     17  N         38.3750   18.3020   37.7110 N.3    38  THR38      -0.1218
     18  CA        37.9010   19.6420   38.0410 C.3    38  THR38       0.1862
     19  C         37.1260   19.6390   39.3560 C.2    38  THR38       0.2287
     20  O         36.9360   20.6880   39.9730 O.2    38  THR38      -0.2866
     21  CB        37.0080   20.2380   36.9150 C.3    38  THR38       0.1770
     22  OG1       35.8540   19.4190   36.7160 O.3    38  THR38      -0.2211
     23  CG2       37.7920   20.3340   35.6140 C.3    38  THR38       0.0375
     24  N         38.3080   21.3400   42.7720 N.3    41  PHE41      -0.1227
     25  CA        38.0770   22.7270   43.1490 C.3    41  PHE41       0.1736
     26  C         36.7380   22.9680   43.8460 C.2    41  PHE41       0.2595
     27  O         36.4290   24.0980   44.2190 O.2    41  PHE41      -0.2718
     28  CB        38.1740   23.6090   41.9020 C.3    41  PHE41       0.0547
     29  CG        39.5310   23.5990   41.2590 C.ar   41  PHE41      -0.0202
     30  CD1       40.5610   24.3680   41.7790 C.ar   41  PHE41      -0.0042
     31  CD2       39.7810   22.8160   40.1420 C.ar   41  PHE41      -0.0042
     32  CE1       41.8170   24.3580   41.1960 C.ar   41  PHE41      -0.0003
     33  CE2       41.0350   22.8010   39.5540 C.ar   41  PHE41      -0.0003
     34  CZ        42.0550   23.5740   40.0830 C.ar   41  PHE41      -0.0000
     35  N         35.9470   21.9120   44.0220 N.am   42  PHE42      -0.1976
     36  CA        34.5960   22.0610   44.5600 C.3    42  PHE42       0.1639
     37  C         34.3110   21.1630   45.7550 C.2    42  PHE42       0.2290
     38  O         33.1950   20.6680   45.9310 O.2    42  PHE42      -0.2864
     39  CB        33.5730   21.7990   43.4540 C.3    42  PHE42       0.0560
     40  CG        33.7230   22.7100   42.2820 C.ar   42  PHE42      -0.0200
     41  CD1       33.1320   23.9630   42.2860 C.ar   42  PHE42      -0.0042
     42  CD2       34.4960   22.3390   41.1930 C.ar   42  PHE42      -0.0042
     43  CE1       33.3120   24.8350   41.2260 C.ar   42  PHE42      -0.0003
     44  CE2       34.6800   23.2080   40.1280 C.ar   42  PHE42      -0.0003
     45  CZ        34.0850   24.4580   40.1480 C.ar   42  PHE42      -0.0000
     46  N         33.7180   21.7890   48.7060 N.3    44  SER44      -0.1202
     47  CA        32.6980   22.2760   49.6340 C.3    44  SER44       0.2020
     48  C         31.2780   22.0450   49.1270 C.2    44  SER44       0.2618
     49  O         30.3070   22.2990   49.8350 O.2    44  SER44      -0.2717
     50  CB        32.9050   23.7690   49.9120 C.3    44  SER44       0.2103
     51  OG        32.6690   24.5540   48.7560 O.3    44  SER44      -0.2182
     52  N         31.1570   21.5600   47.8980 N.am   45  PHE45      -0.1975
     53  CA        29.8530   21.4190   47.2680 C.3    45  PHE45       0.1639
     54  C         29.1010   20.1520   47.6760 C.2    45  PHE45       0.2290
     55  O         27.9780   19.9280   47.2340 O.2    45  PHE45      -0.2864
     56  CB        30.0040   21.4680   45.7420 C.3    45  PHE45       0.0560
     57  CG        30.2090   22.8530   45.1930 C.ar   45  PHE45      -0.0200
     58  CD1       31.0230   23.7680   45.8440 C.ar   45  PHE45      -0.0042
     59  CD2       29.5820   23.2400   44.0150 C.ar   45  PHE45      -0.0042
     60  CE1       31.2070   25.0460   45.3320 C.ar   45  PHE45      -0.0003
     61  CE2       29.7610   24.5130   43.4970 C.ar   45  PHE45      -0.0003
     62  CZ        30.5750   25.4190   44.1570 C.ar   45  PHE45      -0.0000
     63  N         24.1680   23.0870   44.7080 N.3    59  LYS59      -0.1245
     64  CA        25.1640   24.1470   44.6370 C.3    59  LYS59       0.1561
     65  C         25.9020   24.1390   43.3070 C.2    59  LYS59       0.2260
     66  O         26.2720   25.1900   42.7960 O.2    59  LYS59      -0.2867
     67  CB        26.1690   24.0610   45.7930 C.3    59  LYS59       0.0271
     68  CG        27.0220   25.3220   45.8800 C.3    59  LYS59       0.0035
     69  CD        27.6040   25.5610   47.2590 C.3    59  LYS59       0.0206
     70  CE        27.8890   27.0470   47.4640 C.3    59  LYS59       0.1093
     71  NZ        28.2280   27.7410   46.1840 N.3    59  LYS59      -0.1314
     72  N         25.8540   27.4340   41.2100 N.3    63  HIS63      -0.1241
     73  CA        27.1390   27.9520   40.7820 C.3    63  HIS63       0.1621
     74  C         27.2270   28.0610   39.2600 C.2    63  HIS63       0.2264
     75  O         27.7690   29.0260   38.7270 O.2    63  HIS63      -0.2867
     76  CB        28.2690   27.0600   41.2890 C.3    63  HIS63       0.0745
     77  CG        29.6200   27.5280   40.8640 C.ar   63  HIS63       0.0817
     78  ND1       30.1360   28.7430   41.2590 N.ar   63  HIS63      -0.2268
     79  CD2       30.5300   26.9860   40.0220 C.ar   63  HIS63       0.1154
     80  CE1       31.3040   28.9310   40.6730 C.ar   63  HIS63       0.1986
     81  NE2       31.5660   27.8800   39.9180 N.ar   63  HIS63      -0.2212
     82  N         25.6100   31.1780   38.1680 N.3    66  LYS66      -0.1231
     83  CA        26.4380   32.3630   38.3630 C.3    66  LYS66       0.1693
     84  C         27.5420   32.4520   37.3110 C.2    66  LYS66       0.2591
     85  O         27.9160   33.5420   36.8830 O.2    66  LYS66      -0.2718
     86  CB        27.0470   32.3590   39.7690 C.3    66  LYS66       0.0285
     87  CG        26.0090   32.5110   40.8710 C.3    66  LYS66       0.0035
     88  CD        26.6500   32.6190   42.2420 C.3    66  LYS66       0.0206
     89  CE        25.5940   32.8370   43.3190 C.3    66  LYS66       0.1093
     90  NZ        24.7880   34.0630   43.0500 N.3    66  LYS66      -0.1314
     91  N         28.0570   31.3010   36.8900 N.am   67  VAL67      -0.1980
     92  CA        29.1010   31.2700   35.8720 C.3    67  VAL67       0.1595
     93  C         28.5610   31.7030   34.5170 C.2    67  VAL67       0.2287
     94  O         29.1990   32.4680   33.8030 O.2    67  VAL67      -0.2864
     95  CB        29.7070   29.8600   35.7270 C.3    67  VAL67       0.0276
     96  CG1       30.7190   29.8360   34.5880 C.3    67  VAL67       0.0022
     97  CG2       30.3750   29.4570   37.0280 C.3    67  VAL67       0.0022
     98  N         28.0070   35.2610   34.3870 N.3    70  SER70      -0.1202
     99  CA        29.2800   35.9250   34.1380 C.3    70  SER70       0.2020
    100  C         29.5700   35.9880   32.6360 C.2    70  SER70       0.2618
    101  O         29.9880   37.0260   32.1270 O.2    70  SER70      -0.2717
    102  CB        30.4100   35.1830   34.8650 C.3    70  SER70       0.2103
    103  OG        31.6670   35.7760   34.5970 O.3    70  SER70      -0.2182
    104  N         29.3480   34.8830   31.9250 N.am   71  PHE71      -0.1975
    105  CA        29.4890   34.8900   30.4700 C.3    71  PHE71       0.1639
    106  C         28.5730   35.9550   29.8640 C.2    71  PHE71       0.2290
    107  O         28.9190   36.5940   28.8680 O.2    71  PHE71      -0.2864
    108  CB        29.1370   33.5180   29.8780 C.3    71  PHE71       0.0560
    109  CG        30.3090   32.5690   29.7860 C.ar   71  PHE71      -0.0200
    110  CD1       31.1640   32.6060   28.6930 C.ar   71  PHE71      -0.0042
    111  CD2       30.5340   31.6250   30.7730 C.ar   71  PHE71      -0.0042
    112  CE1       32.2250   31.7120   28.5840 C.ar   71  PHE71      -0.0003
    113  CE2       31.5990   30.7220   30.6730 C.ar   71  PHE71      -0.0003
    114  CZ        32.4410   30.7680   29.5760 C.ar   71  PHE71      -0.0000
    115  N         36.6570   40.8870   33.0070 N.3    85  PHE85      -0.1241
    116  CA        37.0370   39.6660   33.7130 C.3    85  PHE85       0.1605
    117  C         38.3310   39.7660   34.5160 C.2    85  PHE85       0.2264
    118  O         38.8680   38.7540   34.9630 O.2    85  PHE85      -0.2867
    119  CB        37.1330   38.5060   32.7200 C.3    85  PHE85       0.0534
    120  CG        35.8020   38.0480   32.2150 C.ar   85  PHE85      -0.0203
    121  CD1       35.1140   37.0370   32.8650 C.ar   85  PHE85      -0.0042
    122  CD2       35.2130   38.6610   31.1220 C.ar   85  PHE85      -0.0042
    123  CE1       33.8620   36.6480   32.4370 C.ar   85  PHE85      -0.0003
    124  CE2       33.9590   38.2750   30.6890 C.ar   85  PHE85      -0.0003
    125  CZ        33.2840   37.2720   31.3460 C.ar   85  PHE85      -0.0000
    126  N         37.9180   38.4650   38.1430 N.3    88  LEU88      -0.1245
    127  CA        37.7330   37.0210   38.0860 C.3    88  LEU88       0.1561
    128  C         39.0360   36.3420   37.6870 C.2    88  LEU88       0.2260
    129  O         39.3140   35.2210   38.1030 O.2    88  LEU88      -0.2867
    130  CB        36.6360   36.6690   37.0830 C.3    88  LEU88       0.0270
    131  CG        35.2180   36.9540   37.5790 C.3    88  LEU88       0.0019
    132  CD1       34.2100   36.6700   36.4710 C.3    88  LEU88       0.0001
    133  CD2       34.9360   36.0890   38.8000 C.3    88  LEU88       0.0001
    134  N         41.0580   36.0560   40.7040 N.3    91  LEU91      -0.1231
    135  CA        40.4430   35.0390   41.5500 C.3    91  LEU91       0.1693
    136  C         40.8300   33.6160   41.1460 C.2    91  LEU91       0.2592
    137  O         41.2370   32.8160   41.9890 O.2    91  LEU91      -0.2718
    138  CB        38.9180   35.1680   41.5110 C.3    91  LEU91       0.0284
    139  CG        38.1440   34.0390   42.1950 C.3    91  LEU91       0.0019
    140  CD1       38.3700   34.0980   43.6970 C.3    91  LEU91       0.0001
    141  CD2       36.6630   34.1590   41.8720 C.3    91  LEU91       0.0001
    142  N         40.6960   33.2980   39.8590 N.am   92  HIS92      -0.1976
    143  CA        40.9340   31.9350   39.3970 C.3    92  HIS92       0.1656
    144  C         42.4150   31.5890   39.3530 C.2    92  HIS92       0.2291
    145  O         42.7890   30.4350   39.5290 O.2    92  HIS92      -0.2864
    146  CB        40.3260   31.7160   38.0070 C.3    92  HIS92       0.0771
    147  CG        38.8310   31.6800   38.0020 C.ar   92  HIS92       0.0820
    148  ND1       38.0610   32.8230   37.9830 N.ar   92  HIS92      -0.2267
    149  CD2       37.9630   30.6410   38.0020 C.ar   92  HIS92       0.1154
    150  CE1       36.7840   32.4890   37.9690 C.ar   92  HIS92       0.1986
    151  NE2       36.6960   31.1710   37.9800 N.ar   92  HIS92      -0.2212
    152  N         42.5870   30.6500   43.3970 N.3    96  LEU96      -0.1245
    153  CA        42.1250   29.2830   43.1840 C.3    96  LEU96       0.1561
    154  C         43.1670   28.3960   42.4950 C.2    96  LEU96       0.2260
    155  O         43.1360   27.1750   42.6340 O.2    96  LEU96      -0.2867
    156  CB        40.8320   29.2990   42.3630 C.3    96  LEU96       0.0270
    157  CG        39.6820   30.0870   42.9910 C.3    96  LEU96       0.0019
    158  CD1       38.5130   30.1350   42.0220 C.3    96  LEU96       0.0001
    159  CD2       39.2730   29.4440   44.3070 C.3    96  LEU96       0.0001
    160  N         43.5500   27.6350   39.2790 N.3    98  VAL98      -0.1245
    161  CA        42.9720   26.7700   38.2610 C.3    98  VAL98       0.1561
    162  C         43.8330   26.8580   37.0170 C.2    98  VAL98       0.2260
    163  O         44.0630   27.9480   36.5060 O.2    98  VAL98      -0.2867
    164  CB        41.5640   27.2370   37.8840 C.3    98  VAL98       0.0252
    165  CG1       41.0610   26.4500   36.6730 C.3    98  VAL98       0.0019
    166  CG2       40.6340   27.0650   39.0790 C.3    98  VAL98       0.0019
    167  N         41.7080   24.5600   31.7170 N.3   102  ASN102     -0.1225
    168  CA        40.3500   24.2190   32.1010 C.3   102  ASN102      0.1785
    169  C         39.3330   25.2870   31.7030 C.2   102  ASN102      0.2597
    170  O         38.1470   24.9840   31.5470 O.2   102  ASN102     -0.2718
    171  CB        40.3070   23.9410   33.5960 C.3   102  ASN102      0.1169
    172  CG        41.1790   22.7650   33.9790 C.2   102  ASN102      0.2627
    173  OD1       40.9250   21.6340   33.5820 O.2   102  ASN102     -0.2716
    174  ND2       42.2290   23.0370   34.7400 N.am  102  ASN102     -0.0877
    175  N         39.7930   26.5240   31.5150 N.am  103  PHE103     -0.1976
    176  CA        38.9180   27.5900   31.0170 C.3   103  PHE103      0.1639
    177  C         38.4890   27.2230   29.6000 C.2   103  PHE103      0.2290
    178  O         37.3350   27.4150   29.2050 O.2   103  PHE103     -0.2864
    179  CB        39.6480   28.9450   30.9640 C.3   103  PHE103      0.0560
    180  CG        40.2260   29.3970   32.2830 C.ar  103  PHE103     -0.0200
    181  CD1       39.6950   28.9530   33.4870 C.ar  103  PHE103     -0.0042
    182  CD2       41.2980   30.2800   32.3100 C.ar  103  PHE103     -0.0042
    183  CE1       40.2250   29.3790   34.7010 C.ar  103  PHE103     -0.0003
    184  CE2       41.8340   30.7120   33.5150 C.ar  103  PHE103     -0.0003
    185  CZ        41.2980   30.2610   34.7140 C.ar  103  PHE103     -0.0000
    186  N         35.8730   24.3380   29.7150 N.3   106  LEU106     -0.1245
    187  CA        34.5190   24.7790   30.0510 C.3   106  LEU106      0.1561
    188  C         33.8900   25.4550   28.8330 C.2   106  LEU106      0.2260
    189  O         32.7210   25.2330   28.5220 O.2   106  LEU106     -0.2867
    190  CB        34.5360   25.7560   31.2290 C.3   106  LEU106      0.0270
    191  CG        33.1540   26.2770   31.6620 C.3   106  LEU106      0.0019
    192  CD1       32.2300   25.1110   31.9720 C.3   106  LEU106      0.0001
    193  CD2       33.2990   27.1670   32.8870 C.3   106  LEU106      0.0001
    194  N         33.7490   32.2760   23.7860 N.3   134  VAL134     -0.1245
    195  CA        34.2600   31.5280   24.9380 C.3   134  VAL134      0.1561
    196  C         35.7850   31.5350   24.9920 C.2   134  VAL134      0.2260
    197  O         36.3750   31.5080   26.0720 O.2   134  VAL134     -0.2867
    198  CB        33.7540   30.0550   24.9520 C.3   134  VAL134      0.0252
    199  CG1       32.2280   30.0380   25.0030 C.3   134  VAL134      0.0019
    200  CG2       34.2600   29.2960   23.7340 C.3   134  VAL134      0.0019
    201  N         36.8010   34.9250   26.5270 N.3   137  VAL137     -0.1231
    202  CA        36.6410   34.8630   27.9770 C.3   137  VAL137      0.1692
    203  C         37.7440   34.0240   28.6300 C.2   137  VAL137      0.2591
    204  O         38.2590   34.3880   29.6850 O.2   137  VAL137     -0.2718
    205  CB        35.2610   34.2890   28.3660 C.3   137  VAL137      0.0266
    206  CG1       35.2320   33.9580   29.8540 C.3   137  VAL137      0.0020
    207  CG2       34.1630   35.3100   28.0430 C.3   137  VAL137      0.0020
    208  N         38.1170   32.9150   28.0010 N.am  138  ALA138     -0.1980
    209  CA        39.1810   32.0650   28.5330 C.3   138  ALA138      0.1597
    210  C         40.5110   32.8150   28.5250 C.2   138  ALA138      0.2287
    211  O         41.2660   32.7770   29.4980 O.2   138  ALA138     -0.2864
    212  CB        39.2980   30.7930   27.7020 C.3   138  ALA138      0.0319
    213  N         40.5880   35.4870   31.1880 N.3   141  LEU141     -0.1245
    214  CA        40.7770   34.9270   32.5170 C.3   141  LEU141      0.1561
    215  C         42.1990   34.4090   32.6930 C.2   141  LEU141      0.2260
    216  O         42.7050   34.3220   33.8100 O.2   141  LEU141     -0.2867
    217  CB        39.7670   33.8050   32.7600 C.3   141  LEU141      0.0270
    218  CG        38.4360   34.2720   33.3520 C.3   141  LEU141      0.0019
    219  CD1       37.5000   33.0880   33.4820 C.3   141  LEU141      0.0001
    220  CD2       38.6680   34.9070   34.7110 C.3   141  LEU141      0.0001
@<TRIPOS>BOND
     1   200   198    1
     2   194   195    1
     3   195   198    1
     4   195   196    1
     5   198   199    1
     6   196   197    2
     7   201   202    1
     8   212   209    1
     9   202   205    1
    10   202   203    1
    11   208   209    1
    12   208   203   am
    13   207   205    1
    14   205   206    1
    15   189   188    2
    16   210   209    1
    17   210   211    2
    18   112   110   ar
    19   112   114   ar
    20   203   204    2
    21   110   109   ar
    22   188   187    1
    23   107   106    2
    24   178   177    2
    25   114   113   ar
    26   177   176    1
    27   186   187    1
    28   109   108    1
    29   109   111   ar
    30   106   105    1
    31   108   105    1
    32   187   190    1
    33   105   104    1
    34   113   111   ar
    35   124   122   ar
    36   124   125   ar
    37   179   176    1
    38   179   180    1
    39   176   175    1
    40   122   120   ar
    41   213   214    1
    42   190   191    1
    43   125   123   ar
    44   175   169   am
    45   170   169    2
    46   191   192    1
    47   191   193    1
    48   169   168    1
    49   167   168    1
    50   104   100   am
    51   168   171    1
    52   101   100    2
    53   120   119    1
    54   120   121   ar
    55   180   182   ar
    56   180   181   ar
    57   182   184   ar
    58   123   121   ar
    59   214   215    1
    60   214   217    1
    61   100    99    1
    62   215   216    2
    63   119   116    1
    64   217   218    1
    65    15    14    1
    66   115   116    1
    67     9    10    1
    68   218   219    1
    69   218   220    1
    70    10    13    1
    71    10    11    1
    72   181   183   ar
    73   184   185   ar
    74   173   172    2
    75   171   172    1
    76   116   117    1
    77    94    93    2
    78    13    14    1
    79   172   174   am
    80     1     2    1
    81    99    98    1
    82    99   102    1
    83    14    16    1
    84    12    11    2
    85   117   118    2
    86    93    92    1
    87    96    95    1
    88   103   102    1
    89   183   185   ar
    90     2     3    1
    91     2     5    1
    92     3     4    2
    93    23    21    1
    94    95    92    1
    95    95    97    1
    96    92    91    1
    97     5     6    1
    98   132   131    1
    99   163   162    2
   100   165   164    1
   101    22    21    1
   102    85    84    2
   103    91    84   am
   104    21    18    1
   105     8     6    1
   106   162   161    1
   107   130   131    1
   108   130   127    1
   109    84    83    1
   110     6     7    1
   111   131   133    1
   112   128   127    1
   113   128   129    2
   114    17    18    1
   115   164   161    1
   116   164   166    1
   117   150   151   ar
   118   150   148   ar
   119   151   149   ar
   120   148   147   ar
   121   149   147   ar
   122   147   146    1
   123   146   143    1
   124    18    19    1
   125   127   126    1
   126    82    83    1
   127   161   160    1
   128    83    86    1
   129    75    74    2
   130    74    73    1
   131   144   143    1
   132   144   145    2
   133    19    20    2
   134   143   142    1
   135    33    34   ar
   136    33    31   ar
   137    86    87    1
   138   142   136   am
   139    81    79   ar
   140    81    80   ar
   141    79    77   ar
   142    34    32   ar
   143    44    45   ar
   144    44    42   ar
   145    31    29   ar
   146    45    43   ar
   147    80    78   ar
   148   134   135    1
   149    73    72    1
   150    73    76    1
   151    77    78   ar
   152    77    76    1
   153    87    88    1
   154   136   135    1
   155   136   137    2
   156    42    40   ar
   157    32    30   ar
   158    43    41   ar
   159    29    30   ar
   160    29    28    1
   161   138   135    1
   162   138   139    1
   163   141   139    1
   164    28    25    1
   165   158   157    1
   166   139   140    1
   167    88    89    1
   168    40    41   ar
   169    40    39    1
   170   156   157    1
   171   156   153    1
   172   154   155    2
   173   154   153    1
   174    24    25    1
   175    66    65    2
   176   157   159    1
   177    90    89    1
   178    25    26    1
   179   153   152    1
   180    65    64    1
   181    39    36    1
   182    61    59   ar
   183    61    62   ar
   184    26    35   am
   185    26    27    2
   186    59    57   ar
   187    35    36    1
   188    62    60   ar
   189    36    37    1
   190    64    63    1
   191    64    67    1
   192    57    56    1
   193    57    58   ar
   194    60    58   ar
   195    56    53    1
   196    37    38    2
   197    67    68    1
   198    68    69    1
   199    71    70    1
   200    55    54    2
   201    69    70    1
   202    53    54    1
   203    53    52    1
   204    52    48   am
   205    46    47    1
   206    51    50    1
   207    48    47    1
   208    48    49    2
   209    47    50    1
