@<TRIPOS>MOLECULE
tmp/2z6qD00.pdb
 140 135 0 0 0
SMALL
GASTEIGER

@<TRIPOS>ATOM
      1  N        -12.0090   34.6850   85.7920 N.3    81  CYS81      -0.1221
      2  CA       -11.9080   36.1230   85.6120 C.3    81  CYS81       0.1808
      3  C        -12.2540   36.9700   86.8260 C.2    81  CYS81       0.2601
      4  O        -12.5340   38.1530   86.6910 O.2    81  CYS81      -0.2717
      5  CB       -12.8010   36.5400   84.4490 C.3    81  CYS81       0.0970
      6  SG       -14.5230   36.1240   84.7710 S.3    81  CYS81      -0.0800
      7  N        -12.2370   36.3830   88.0110 N.am   82  GLN82      -0.1979
      8  CA       -12.5500   37.1540   89.2070 C.3    82  GLN82       0.1601
      9  C        -11.3950   38.0800   89.5440 C.2    82  GLN82       0.2287
     10  O        -11.5620   39.0180   90.3010 O.2    82  GLN82      -0.2864
     11  CB       -12.8020   36.2300   90.4020 C.3    82  GLN82       0.0394
     12  CG       -13.6690   35.0390   90.0890 C.3    82  GLN82       0.0908
     13  CD       -12.8780   33.7470   90.0170 C.2    82  GLN82       0.2608
     14  OE1      -12.8420   32.9770   90.9740 O.2    82  GLN82      -0.2717
     15  NE2      -12.2300   33.5060   88.8810 N.am   82  GLN82      -0.0878
     16  N        -11.6560   41.3960   86.8540 N.3    85  SER85      -0.1202
     17  CA       -12.9530   42.0650   86.7820 C.3    85  SER85       0.2020
     18  C        -13.0030   43.4330   87.4490 C.2    85  SER85       0.2619
     19  O        -12.3980   43.6560   88.4940 O.2    85  SER85      -0.2717
     20  CB       -14.0410   41.1840   87.3920 C.3    85  SER85       0.2103
     21  OG       -15.2010   41.9510   87.6640 O.3    85  SER85      -0.2182
     22  N        -13.7500   44.3410   86.8390 N.am   86  ILE86      -0.1965
     23  CA       -13.9030   45.7050   87.3420 C.3    86  ILE86       0.1727
     24  C        -14.6420   45.7030   88.6800 C.2    86  ILE86       0.2616
     25  O        -14.7910   46.7480   89.3270 O.2    86  ILE86      -0.2715
     26  CB       -14.7340   46.5570   86.3570 C.3    86  ILE86       0.0290
     27  CG1      -14.7870   48.0130   86.8190 C.3    86  ILE86       0.0022
     28  CG2      -16.1620   46.0150   86.2900 C.3    86  ILE86       0.0023
     29  CD1      -15.9330   48.8300   86.1810 C.3    86  ILE86       0.0001
     30  N        -15.1020   44.5270   89.0950 N.am   87  SER87      -0.1950
     31  CA       -15.8740   44.4100   90.3260 C.3    87  SER87       0.1924
     32  C        -15.1190   43.7470   91.4720 C.2    87  SER87       0.2314
     33  O        -15.6720   43.5540   92.5480 O.2    87  SER87      -0.2863
     34  CB       -17.1620   43.6340   90.0250 C.3    87  SER87       0.2116
     35  OG       -18.0150   43.5680   91.1480 O.3    87  SER87      -0.2180
     36  N        -11.6350   33.2950   76.2920 N.3   119  GLU119     -0.1231
     37  CA       -12.6390   34.2880   76.6910 C.3   119  GLU119      0.1699
     38  C        -12.4040   34.7800   78.1280 C.2   119  GLU119      0.2592
     39  O        -11.9280   34.0320   78.9760 O.2   119  GLU119     -0.2718
     40  CB       -14.0470   33.6760   76.5500 C.3   119  GLU119      0.0402
     41  CG       -15.2370   34.5950   76.8700 C.3   119  GLU119      0.1161
     42  CD       -15.6590   34.5300   78.3310 C.2   119  GLU119      0.3649
     43  OE1      -15.6730   33.4120   78.8810 O.co2 119  GLU119     -0.2457
     44  OE2      -15.9860   35.5780   78.9300 O.co2 119  GLU119     -0.2457
     45  N        -12.7310   36.0440   78.3850 N.am  120  ASN120     -0.1960
     46  CA       -12.5620   36.6380   79.7080 C.3   120  ASN120      0.1819
     47  C        -13.3530   37.9480   79.7640 C.2   120  ASN120      0.2621
     48  O        -13.9910   38.3250   78.7800 O.2   120  ASN120     -0.2715
     49  CB       -11.0710   36.8950   79.9830 C.3   120  ASN120      0.1195
     50  CG       -10.7380   36.8970   81.4720 C.2   120  ASN120      0.2630
     51  OD1      -10.8840   37.9100   82.1510 O.2   120  ASN120     -0.2716
     52  ND2      -10.3000   35.7510   81.9840 N.am  120  ASN120     -0.0877
     53  N        -13.3260   38.6370   80.9040 N.am  121  VAL121     -0.1977
     54  CA       -14.0580   39.8940   81.0340 C.3   121  VAL121      0.1596
     55  C        -13.4250   41.0310   80.2260 C.2   121  VAL121      0.2287
     56  O        -12.2340   40.9960   79.9040 O.2   121  VAL121     -0.2864
     57  CB       -14.1840   40.3450   82.5120 C.3   121  VAL121      0.0276
     58  CG1      -15.1980   39.4870   83.2390 C.3   121  VAL121      0.0022
     59  CG2      -12.8380   40.2770   83.1940 C.3   121  VAL121      0.0022
     60  N        -23.9620   42.0660   78.4940 N.3   163  ARG163     -0.1231
     61  CA       -22.7470   41.3190   78.8190 C.3   163  ARG163      0.1694
     62  C        -21.5850   41.4900   77.8470 C.2   163  ARG163      0.2592
     63  O        -21.6380   41.0300   76.7060 O.2   163  ARG163     -0.2718
     64  CB       -23.0680   39.8380   78.9630 C.3   163  ARG163      0.0321
     65  CG       -21.8390   38.9620   79.1100 C.3   163  ARG163      0.0489
     66  CD       -22.2400   37.5190   79.3230 C.3   163  ARG163      0.2205
     67  NE       -22.3040   37.2030   80.7410 N.pl3 163  ARG163     -0.0865
     68  CZ       -21.3520   36.5440   81.3840 C.cat 163  ARG163      0.5346
     69  NH1      -20.2830   36.1370   80.7210 N.pl3 163  ARG163      0.1354
     70  NH2      -21.4590   36.2940   82.6780 N.pl3 163  ARG163      0.1354
     71  N        -20.5260   42.1370   78.3270 N.am  164  GLU164     -0.1966
     72  CA       -19.3280   42.3870   77.5330 C.3   164  GLU164      0.1733
     73  C        -18.2570   41.3640   77.8750 C.2   164  GLU164      0.2616
     74  O        -18.1980   40.8600   78.9920 O.2   164  GLU164     -0.2715
     75  CB       -18.8070   43.8000   77.7990 C.3   164  GLU164      0.0429
     76  CG       -19.8950   44.8720   77.6730 C.3   164  GLU164      0.1163
     77  CD       -19.4230   46.2640   78.0770 C.2   164  GLU164      0.3649
     78  OE1      -18.7480   46.9180   77.2530 O.co2 164  GLU164     -0.2457
     79  OE2      -19.7200   46.7020   79.2180 O.co2 164  GLU164     -0.2457
     80  N        -17.4190   41.0450   76.9010 N.am  165  ALA165     -0.1977
     81  CA       -16.3530   40.0810   77.1090 C.3   165  ALA165      0.1597
     82  C        -15.2470   40.2690   76.0840 C.2   165  ALA165      0.2287
     83  O        -15.4730   40.7850   74.9870 O.2   165  ALA165     -0.2864
     84  CB       -16.9020   38.6720   77.0140 C.3   165  ALA165      0.0319
     85  N        -25.4690   42.4420   83.3180 N.3   250  THR250     -0.1203
     86  CA       -24.5410   41.3310   83.3380 C.3   250  THR250      0.1994
     87  C        -24.9270   40.4050   84.4720 C.2   250  THR250      0.2618
     88  O        -25.2350   40.8600   85.5740 O.2   250  THR250     -0.2717
     89  CB       -23.1070   41.7930   83.5800 C.3   250  THR250      0.1784
     90  OG1      -22.6630   42.5740   82.4690 O.3   250  THR250     -0.2211
     91  CG2      -22.1940   40.6030   83.7440 C.3   250  THR250      0.0376
     92  N        -24.9330   39.1070   84.1880 N.am  251  LEU251     -0.1965
     93  CA       -25.2290   38.0900   85.1900 C.3   251  LEU251      0.1728
     94  C        -23.8820   37.7890   85.8510 C.2   251  LEU251      0.2617
     95  O        -22.9120   37.4860   85.1580 O.2   251  LEU251     -0.2715
     96  CB       -25.7780   36.8340   84.5100 C.3   251  LEU251      0.0311
     97  CG       -27.2930   36.6000   84.4360 C.3   251  LEU251      0.0022
     98  CD1      -28.0480   37.9030   84.5050 C.3   251  LEU251      0.0001
     99  CD2      -27.6130   35.8380   83.1640 C.3   251  LEU251      0.0001
    100  N        -23.8050   37.8970   87.1750 N.am  252  SER252     -0.1936
    101  CA       -22.5430   37.6350   87.8680 C.3   252  SER252      0.2055
    102  C        -22.5540   36.3340   88.6560 C.2   252  SER252      0.2643
    103  O        -23.6000   35.8850   89.1180 O.2   252  SER252     -0.2714
    104  CB       -22.1820   38.8030   88.7950 C.3   252  SER252      0.2130
    105  OG       -23.2610   39.1470   89.6420 O.3   252  SER252     -0.2179
    106  N        -21.3750   35.7380   88.8090 N.am  253  ALA253     -0.1963
    107  CA       -21.2310   34.4730   89.5230 C.3   253  ALA253      0.1728
    108  C        -21.1140   34.6210   91.0440 C.2   253  ALA253      0.2616
    109  O        -21.4860   33.7060   91.7890 O.2   253  ALA253     -0.2715
    110  CB       -20.0240   33.7150   88.9800 C.3   253  ALA253      0.0334
    111  N        -20.5950   35.7630   91.5020 N.am  254  TYR254     -0.1974
    112  CA       -20.4200   36.0010   92.9350 C.3   254  TYR254      0.1639
    113  C        -21.0870   37.2690   93.4230 C.2   254  TYR254      0.2290
    114  O        -20.9770   37.6200   94.5910 O.2   254  TYR254     -0.2864
    115  CB       -18.9340   36.0440   93.2900 C.3   254  TYR254      0.0560
    116  CG       -18.2380   34.7100   93.1220 C.ar  254  TYR254     -0.0198
    117  CD1      -18.5280   33.6380   93.9700 C.ar  254  TYR254     -0.0009
    118  CD2      -17.2990   34.5130   92.1030 C.ar  254  TYR254     -0.0009
    119  CE1      -17.9000   32.4030   93.8090 C.ar  254  TYR254      0.0417
    120  CE2      -16.6650   33.2810   91.9320 C.ar  254  TYR254      0.0417
    121  CZ       -16.9700   32.2300   92.7860 C.ar  254  TYR254      0.1957
    122  OH       -16.3570   31.0070   92.6100 O.3   254  TYR254     -0.2866
    123  N        -23.7690   32.6830   85.8550 N.3   303  GLY303     -0.1210
    124  CA       -23.0860   33.8960   86.2390 C.3   303  GLY303      0.1956
    125  C        -21.7450   34.0000   85.5460 C.2   303  GLY303      0.2612
    126  O        -21.4410   35.0290   84.9510 O.2   303  GLY303     -0.2717
    127  N        -20.9250   32.9540   85.6040 N.am  304  ASN304     -0.1960
    128  CA       -19.6420   33.0660   84.9400 C.3   304  ASN304      0.1819
    129  C        -19.5070   32.2740   83.6500 C.2   304  ASN304      0.2622
    130  O        -18.4050   31.9150   83.2470 O.2   304  ASN304     -0.2715
    131  CB       -18.4590   32.7820   85.9120 C.3   304  ASN304      0.1195
    132  CG       -18.5140   31.4180   86.5620 C.2   304  ASN304      0.2630
    133  OD1      -18.8040   30.4190   85.9150 O.2   304  ASN304     -0.2716
    134  ND2      -18.2010   31.3680   87.8470 N.am  304  ASN304     -0.0877
    135  N        -20.6320   32.0580   82.9750 N.am  305  SER305     -0.1950
    136  CA       -20.6470   31.3270   81.7100 C.3   305  SER305      0.1924
    137  C        -20.4440   32.2610   80.5240 C.2   305  SER305      0.2314
    138  O        -20.0000   33.4000   80.6790 O.2   305  SER305     -0.2863
    139  CB       -21.9700   30.5800   81.5400 C.3   305  SER305      0.2116
    140  OG       -21.9490   29.7600   80.3870 O.3   305  SER305     -0.2180
@<TRIPOS>BOND
     1    83    82    2
     2    82    81    1
     3    36    37    1
     4    40    37    1
     5    40    41    1
     6    37    38    1
     7    63    62    2
     8    41    42    1
     9    80    81    1
    10    80    73   am
    11    84    81    1
    12    78    77   ar
    13    72    75    1
    14    72    73    1
    15    72    71    1
    16    76    75    1
    17    76    77    1
    18    62    71   am
    19    62    61    1
    20    73    74    2
    21    77    79   ar
    22    38    45   am
    23    38    39    2
    24    42    43   ar
    25    42    44   ar
    26    45    46    1
    27    60    61    1
    28    48    47    2
    29    61    64    1
    30    64    65    1
    31    65    66    1
    32    66    67    1
    33    46    47    1
    34    46    49    1
    35    47    53   am
    36    56    55    2
    37    49    50    1
    38    55    54    1
    39   140   139    1
    40   137   138    2
    41   137   136    1
    42    69    68    1
    43    67    68    2
    44    53    54    1
    45    54    57    1
    46    68    70    1
    47    50    52   am
    48    50    51    2
    49   139   136    1
    50   136   135    1
    51    90    89    1
    52    57    59    1
    53    57    58    1
    54   135   129   am
    55    99    97    1
    56   130   129    2
    57    85    86    1
    58    86    89    1
    59    86    87    1
    60    89    91    1
    61   129   128    1
    62    92    87   am
    63    92    93    1
    64    97    98    1
    65    97    96    1
    66     5     6    1
    67     5     2    1
    68    87    88    2
    69    96    93    1
    70   128   127    1
    71   128   131    1
    72   126   125    2
    73    95    94    2
    74    93    94    1
    75   125   127   am
    76   125   124    1
    77     2     1    1
    78     2     3    1
    79    94   100   am
    80   123   124    1
    81   131   132    1
    82   133   132    2
    83    29    27    1
    84    28    26    1
    85    26    27    1
    86    26    23    1
    87   132   134   am
    88     4     3    2
    89    17    16    1
    90    17    20    1
    91    17    18    1
    92     3     7   am
    93    22    23    1
    94    22    18   am
    95   100   101    1
    96    23    24    1
    97    20    21    1
    98    18    19    2
    99   101   102    1
   100   101   104    1
   101     7     8    1
   102   102   106   am
   103   102   103    2
   104    24    30   am
   105    24    25    2
   106   104   105    1
   107   106   107    1
   108    15    13   am
   109   110   107    1
   110    30    31    1
   111     8     9    1
   112     8    11    1
   113   107   108    1
   114     9    10    2
   115    13    12    1
   116    13    14    2
   117    34    31    1
   118    34    35    1
   119    12    11    1
   120    31    32    1
   121   108   111   am
   122   108   109    2
   123    32    33    2
   124   111   112    1
   125   120   118   ar
   126   120   121   ar
   127   118   116   ar
   128   122   121    1
   129   121   119   ar
   130   112   115    1
   131   112   113    1
   132   116   115    1
   133   116   117   ar
   134   113   114    2
   135   119   117   ar
