@<TRIPOS>MOLECULE
tmp/2z6vA00.pdb
 133 129 0 0 0
SMALL
GASTEIGER

@<TRIPOS>ATOM
      1  N        123.7770  150.9020  -24.5160 N.3    94  PRO94      -0.2116
      2  CA       123.4610  149.5040  -24.2100 C.3    94  PRO94       0.1372
      3  C        124.4820  149.0770  -23.1510 C.2    94  PRO94       0.2244
      4  O        125.5120  149.7360  -22.9790 O.2    94  PRO94      -0.2868
      5  CB       123.6700  148.8020  -25.5500 C.3    94  PRO94       0.0268
      6  CG       124.7510  149.6240  -26.1930 C.3    94  PRO94       0.0207
      7  CD       124.3270  151.0400  -25.8790 C.3    94  PRO94       0.0892
      8  N        112.8190  144.4360  -24.6180 N.3   169  GLU169     -0.1245
      9  CA       113.0000  145.7360  -25.2670 C.3   169  GLU169      0.1567
     10  C        112.0310  145.9930  -26.4130 C.2   169  GLU169      0.2260
     11  O        111.5220  145.0590  -27.0320 O.2   169  GLU169     -0.2867
     12  CB       114.4210  145.8890  -25.8050 C.3   169  GLU169      0.0388
     13  CG       115.4190  146.2350  -24.7560 C.3   169  GLU169      0.1160
     14  CD       116.2020  145.0420  -24.2860 C.2   169  GLU169      0.3649
     15  OE1      115.6020  143.9500  -24.1060 O.co2 169  GLU169     -0.2457
     16  OE2      117.4280  145.2120  -24.0850 O.co2 169  GLU169     -0.2457
     17  N        112.8220  146.8560  -28.9870 N.3   171  MET171     -0.1230
     18  CA       113.5910  146.4420  -30.1500 C.3   171  MET171      0.1702
     19  C        112.8570  145.3370  -30.8940 C.2   171  MET171      0.2592
     20  O        112.8620  145.2970  -32.1240 O.2   171  MET171     -0.2718
     21  CB       114.9690  145.9410  -29.7140 C.3   171  MET171      0.0401
     22  CG       115.8830  145.5140  -30.8500 C.3   171  MET171      0.0596
     23  SD       116.1450  146.8150  -32.0700 S.3   171  MET171     -0.1393
     24  CE       117.3470  147.8090  -31.2960 C.3   171  MET171      0.0692
     25  N        112.1970  144.4610  -30.1460 N.am  172  PHE172     -0.1976
     26  CA       111.4760  143.3550  -30.7580 C.3   172  PHE172      0.1639
     27  C        110.1090  143.6940  -31.3170 C.2   172  PHE172      0.2290
     28  O        109.3640  142.8070  -31.7230 O.2   172  PHE172     -0.2864
     29  CB       111.4230  142.1890  -29.7800 C.3   172  PHE172      0.0560
     30  CG       112.7790  141.7950  -29.2980 C.ar  172  PHE172     -0.0200
     31  CD1      113.7210  141.3070  -30.1960 C.ar  172  PHE172     -0.0042
     32  CD2      113.1660  142.0470  -27.9830 C.ar  172  PHE172     -0.0042
     33  CE1      115.0360  141.0870  -29.7990 C.ar  172  PHE172     -0.0003
     34  CE2      114.4740  141.8320  -27.5730 C.ar  172  PHE172     -0.0003
     35  CZ       115.4160  141.3530  -28.4840 C.ar  172  PHE172     -0.0000
     36  N        118.2500  148.4450  -34.3950 N.3   181  LEU181     -0.1231
     37  CA       119.6700  148.1860  -34.3090 C.3   181  LEU181      0.1693
     38  C        120.0440  146.7140  -34.0920 C.2   181  LEU181      0.2592
     39  O        121.1890  146.3380  -34.3140 O.2   181  LEU181     -0.2718
     40  CB       120.2610  149.0530  -33.1950 C.3   181  LEU181      0.0284
     41  CG       121.7760  149.1440  -33.0360 C.3   181  LEU181      0.0019
     42  CD1      122.4200  149.6050  -34.3440 C.3   181  LEU181      0.0001
     43  CD2      122.0900  150.1110  -31.8990 C.3   181  LEU181      0.0001
     44  N        119.0980  145.8750  -33.6750 N.am  182  SER182     -0.1952
     45  CA       119.4220  144.4730  -33.4320 C.3   182  SER182      0.1924
     46  C        119.8150  143.7250  -34.6980 C.2   182  SER182      0.2314
     47  O        120.6390  142.8120  -34.6470 O.2   182  SER182     -0.2863
     48  CB       118.2580  143.7450  -32.7580 C.3   182  SER182      0.2116
     49  OG       117.1260  143.6730  -33.6010 O.3   182  SER182     -0.2180
     50  N        121.6320  144.7040  -37.0900 N.3   184  ASP184     -0.1225
     51  CA       123.0360  144.9500  -37.3960 C.3   184  ASP184      0.1805
     52  C        123.9990  143.9960  -36.7050 C.2   184  ASP184      0.2598
     53  O        125.1130  143.7830  -37.1830 O.2   184  ASP184     -0.2718
     54  CB       123.4310  146.3850  -37.0370 C.3   184  ASP184      0.1424
     55  CG       124.8770  146.6910  -37.3980 C.2   184  ASP184      0.3668
     56  OD1      125.1780  146.7870  -38.6130 O.co2 184  ASP184     -0.2456
     57  OD2      125.7110  146.8190  -36.4720 O.co2 184  ASP184     -0.2456
     58  N        123.5900  143.4250  -35.5780 N.am  185  SER185     -0.1952
     59  CA       124.4790  142.5130  -34.8790 C.3   185  SER185      0.1924
     60  C        124.4990  141.1610  -35.5890 C.2   185  SER185      0.2314
     61  O        125.3120  140.2990  -35.2740 O.2   185  SER185     -0.2863
     62  CB       124.0560  142.3600  -33.4150 C.3   185  SER185      0.2116
     63  OG       122.7400  141.8700  -33.3120 O.3   185  SER185     -0.2180
     64  N        114.5700  150.3740  -24.1640 N.3   228  MET228     -0.1231
     65  CA       115.3450  150.1280  -25.3750 C.3   228  MET228      0.1687
     66  C        116.4350  151.1800  -25.4310 C.2   228  MET228      0.2434
     67  O        116.1550  152.3670  -25.5760 O.2   228  MET228     -0.2733
     68  CB       114.5030  150.2150  -26.6480 C.3   228  MET228      0.0400
     69  CG       115.3450  149.9520  -27.8900 C.3   228  MET228      0.0596
     70  SD       114.4590  149.8850  -29.4520 S.3   228  MET228     -0.1393
     71  CE       114.6840  151.5530  -30.0720 C.3   228  MET228      0.0692
     72  N        117.7010  150.7570  -25.3000 N.am  229  PRO229     -0.2718
     73  CA       118.8290  151.6930  -25.3390 C.3   229  PRO229      0.1535
     74  C        118.8160  152.6690  -26.5130 C.2   229  PRO229      0.2599
     75  O        118.8900  153.8800  -26.3050 O.2   229  PRO229     -0.2715
     76  CB       120.0460  150.7660  -25.3530 C.3   229  PRO229      0.0310
     77  CG       119.5930  149.6200  -24.4950 C.3   229  PRO229      0.0237
     78  CD       118.1540  149.3950  -24.9500 C.3   229  PRO229      0.0939
     79  N        118.7030  152.1580  -27.7380 N.am  230  SER230     -0.1950
     80  CA       118.7130  153.0280  -28.9170 C.3   230  SER230      0.1924
     81  C        117.5520  154.0180  -29.0190 C.2   230  SER230      0.2314
     82  O        117.4400  154.7350  -30.0120 O.2   230  SER230     -0.2863
     83  CB       118.8250  152.2110  -30.2180 C.3   230  SER230      0.2116
     84  OG       117.8100  151.2290  -30.3120 O.3   230  SER230     -0.2180
     85  N        129.7480  146.1170  -25.0740 N.3   261  LEU261     -0.1245
     86  CA       128.9680  146.0690  -26.3120 C.3   261  LEU261      0.1561
     87  C        129.6610  145.1620  -27.3160 C.2   261  LEU261      0.2260
     88  O        129.0290  144.2900  -27.9030 O.2   261  LEU261     -0.2867
     89  CB       128.7880  147.4660  -26.9310 C.3   261  LEU261      0.0270
     90  CG       127.9860  147.4430  -28.2430 C.3   261  LEU261      0.0019
     91  CD1      126.6320  146.7960  -27.9930 C.3   261  LEU261      0.0001
     92  CD2      127.7990  148.8450  -28.7900 C.3   261  LEU261      0.0001
     93  N        129.2250  141.6730  -26.3990 N.3   264  LEU264     -0.1231
     94  CA       127.8580  141.2220  -26.6230 C.3   264  LEU264      0.1693
     95  C        127.6780  140.7060  -28.0420 C.2   264  LEU264      0.2592
     96  O        126.9600  139.7280  -28.2720 O.2   264  LEU264     -0.2718
     97  CB       126.8690  142.3700  -26.3780 C.3   264  LEU264      0.0284
     98  CG       125.3740  142.0260  -26.4530 C.3   264  LEU264      0.0019
     99  CD1      125.0300  141.0830  -25.3160 C.3   264  LEU264      0.0001
    100  CD2      124.5280  143.2820  -26.3640 C.3   264  LEU264      0.0001
    101  N        128.3410  141.3690  -28.9870 N.am  265  TRP265     -0.1976
    102  CA       128.2370  141.0130  -30.3980 C.3   265  TRP265      0.1640
    103  C        128.7980  139.6490  -30.7740 C.2   265  TRP265      0.2290
    104  O        128.4570  139.0970  -31.8220 O.2   265  TRP265     -0.2864
    105  CB       128.9210  142.0680  -31.2640 C.3   265  TRP265      0.0576
    106  CG       128.2410  143.3890  -31.3020 C.ar  265  TRP265      0.0006
    107  CD1      126.9340  143.6570  -31.0080 C.ar  265  TRP265      0.0946
    108  CD2      128.8170  144.6260  -31.7260 C.ar  265  TRP265      0.0152
    109  NE1      126.6620  144.9850  -31.2250 N.ar  265  TRP265     -0.2442
    110  CE2      127.8010  145.6030  -31.6670 C.ar  265  TRP265      0.0810
    111  CE3      130.0970  145.0050  -32.1530 C.ar  265  TRP265      0.0012
    112  CZ2      128.0230  146.9310  -32.0200 C.ar  265  TRP265      0.0191
    113  CZ3      130.3170  146.3310  -32.5060 C.ar  265  TRP265      0.0001
    114  CH2      129.2850  147.2760  -32.4370 C.ar  265  TRP265      0.0015
    115  N        128.8610  153.7560  -32.7820 N.3   290  GLN290     -0.1245
    116  CA       127.5030  153.5680  -32.3030 C.3   290  GLN290      0.1566
    117  C        127.2720  154.2430  -30.9550 C.2   290  GLN290      0.2260
    118  O        126.2280  154.8650  -30.7320 O.2   290  GLN290     -0.2867
    119  CB       127.1790  152.0790  -32.1970 C.3   290  GLN290      0.0367
    120  CG       126.7630  151.4560  -33.5070 C.3   290  GLN290      0.0905
    121  CD       126.3100  150.0210  -33.3370 C.2   290  GLN290      0.2608
    122  OE1      125.7060  149.6760  -32.3320 O.2   290  GLN290     -0.2717
    123  NE2      126.5850  149.1880  -34.3250 N.am  290  GLN290     -0.0878
    124  N        124.5860  157.1790  -29.2200 N.3   294  HIS294     -0.1241
    125  CA       123.8240  156.8980  -28.0140 C.3   294  HIS294      0.1621
    126  C        123.9280  157.9710  -26.9420 C.2   294  HIS294      0.2264
    127  O        123.0550  158.0570  -26.0870 O.2   294  HIS294     -0.2867
    128  CB       124.2170  155.5430  -27.4190 C.3   294  HIS294      0.0745
    129  CG       123.6080  154.3730  -28.1280 C.ar  294  HIS294      0.0817
    130  ND1      124.0440  153.9380  -29.3620 N.ar  294  HIS294     -0.2268
    131  CD2      122.5840  153.5580  -27.7820 C.ar  294  HIS294      0.1154
    132  CE1      123.3180  152.9030  -29.7440 C.ar  294  HIS294      0.1986
    133  NE2      122.4250  152.6530  -28.8040 N.ar  294  HIS294     -0.2212
@<TRIPOS>BOND
     1    56    55   ar
     2    55    54    1
     3    55    57   ar
     4    51    50    1
     5    51    54    1
     6    51    52    1
     7    53    52    2
     8    52    58   am
     9    60    61    2
    10    60    59    1
    11    58    59    1
    12    59    62    1
    13    46    47    2
    14    46    45    1
    15    36    37    1
    16    42    41    1
    17   123   121   am
    18    39    38    2
    19    37    38    1
    20    37    40    1
    21    38    44   am
    22    44    45    1
    23    49    48    1
    24   120   121    1
    25   120   119    1
    26    45    48    1
    27    62    63    1
    28   121   122    2
    29    40    41    1
    30    41    43    1
    31   115   116    1
    32   113   114   ar
    33   113   111   ar
    34   114   112   ar
    35   116   119    1
    36   116   117    1
    37   111   108   ar
    38    20    19    2
    39    23    24    1
    40    23    22    1
    41   112   110   ar
    42   104   103    2
    43   108   110   ar
    44   108   106   ar
    45    28    27    2
    46   110   109   ar
    47    27    26    1
    48   106   105    1
    49   106   107   ar
    50   105   102    1
    51   109   107   ar
    52   117   118    2
    53    19    18    1
    54    19    25   am
    55    22    21    1
    56   103   102    1
    57    26    25    1
    58    26    29    1
    59   102   101    1
    60    84    83    1
    61    83    80    1
    62    31    33   ar
    63    31    30   ar
    64    18    21    1
    65    18    17    1
    66    71    70    1
    67    82    81    2
    68    33    35   ar
    69    29    30    1
    70   132   130   ar
    71   132   133   ar
    72    70    69    1
    73   130   129   ar
    74    30    32   ar
    75   124   125    1
    76    81    80    1
    77   101    95   am
    78    80    79    1
    79   133   131   ar
    80    92    90    1
    81    35    34   ar
    82    96    95    2
    83    90    91    1
    84    90    89    1
    85   129   131   ar
    86   129   128    1
    87    95    94    1
    88   125   128    1
    89   125   126    1
    90    32    34   ar
    91    88    87    2
    92    69    68    1
    93    79    74   am
    94    87    86    1
    95    11    10    2
    96   126   127    2
    97    89    86    1
    98    68    65    1
    99    94    93    1
   100    94    97    1
   101    74    75    2
   102    74    73    1
   103    98    97    1
   104    98   100    1
   105    98    99    1
   106    10     9    1
   107    86    85    1
   108     6     7    1
   109     6     5    1
   110     7     1    1
   111    12     9    1
   112    12    13    1
   113    67    66    2
   114     5     2    1
   115    66    65    1
   116    66    72   am
   117    65    64    1
   118    76    73    1
   119    76    77    1
   120    73    72    1
   121    72    78    1
   122     9     8    1
   123    78    77    1
   124    13    14    1
   125     1     2    1
   126    14    15   ar
   127    14    16   ar
   128     2     3    1
   129     3     4    2
