@<TRIPOS>MOLECULE
tmp/2z6wA00.pdb
 157 150 0 0 0
SMALL
GASTEIGER

@<TRIPOS>ATOM
      1  N          2.7760    4.8200    0.4110 N.3    54  ARG54      -0.1245
      2  CA         3.2210    4.0070    1.5260 C.3    54  ARG54       0.1563
      3  C          2.9030    2.5690    1.2140 C.2    54  ARG54       0.2260
      4  O          1.7010    2.2160    1.0820 O.2    54  ARG54      -0.2867
      5  CB         2.5880    4.4900    2.8430 C.3    54  ARG54       0.0307
      6  CG         2.9520    3.6820    4.0720 C.3    54  ARG54       0.0489
      7  CD         2.4470    4.3790    5.3390 C.3    54  ARG54       0.2205
      8  NE         2.6650    3.5930    6.5460 N.pl3  54  ARG54      -0.0865
      9  CZ         1.7610    2.7770    7.0890 C.cat  54  ARG54       0.5346
     10  NH1        0.5090    2.6470    6.5760 N.pl3  54  ARG54       0.1354
     11  NH2        2.0530    2.0870    8.1980 N.pl3  54  ARG54       0.1354
     12  N          3.9700   -1.4810    2.0910 N.3    56  ILE56      -0.1245
     13  CA         4.6690   -2.3210    3.0680 C.3    56  ILE56       0.1561
     14  C          4.4450   -3.7640    2.6510 C.2    56  ILE56       0.2260
     15  O          3.3230   -4.2840    2.7520 O.2    56  ILE56      -0.2867
     16  CB         4.1800   -2.0380    4.4940 C.3    56  ILE56       0.0252
     17  CG1        4.5050   -0.5780    4.8540 C.3    56  ILE56       0.0019
     18  CG2        4.8190   -3.0250    5.5100 C.3    56  ILE56       0.0019
     19  CD1        3.9410   -0.1180    6.1890 C.3    56  ILE56       0.0001
     20  N          3.9420   -7.5880    2.5050 N.3    58  SER58      -0.1202
     21  CA         3.1500   -8.5740    3.2620 C.3    58  SER58       0.2020
     22  C          2.1010   -7.9300    4.1330 C.2    58  SER58       0.2619
     23  O          1.5440   -8.6370    4.9450 O.2    58  SER58      -0.2717
     24  CB         4.0380   -9.4890    4.1380 C.3    58  SER58       0.2103
     25  OG         5.0800  -10.1160    3.4100 O.3    58  SER58      -0.2182
     26  N          1.8640   -6.6230    3.9690 N.am   59  PHE59      -0.1961
     27  CA         0.8540   -5.8800    4.7510 C.3    59  PHE59       0.1771
     28  C         -0.1780   -5.2630    3.7940 C.2    59  PHE59       0.2619
     29  O         -1.3040   -5.8130    3.6510 O.2    59  PHE59      -0.2715
     30  CB         1.5320   -4.8840    5.6820 C.3    59  PHE59       0.0574
     31  CG         0.6130   -4.0040    6.4620 C.ar   59  PHE59      -0.0200
     32  CD1       -0.6990   -4.3910    6.8010 C.ar   59  PHE59      -0.0042
     33  CD2        1.0430   -2.7420    6.8680 C.ar   59  PHE59      -0.0042
     34  CE1       -1.5050   -3.5180    7.5150 C.ar   59  PHE59      -0.0003
     35  CE2        0.2260   -1.8600    7.5650 C.ar   59  PHE59      -0.0003
     36  CZ        -1.0780   -2.2640    7.8890 C.ar   59  PHE59      -0.0000
     37  N          0.1590   -4.1360    3.1820 N.am   60  MET60      -0.1977
     38  CA        -0.8040   -3.4420    2.3390 C.3    60  MET60       0.1605
     39  C         -0.0990   -2.3880    1.4750 C.2    60  MET60       0.2287
     40  O          1.0980   -2.0390    1.7210 O.2    60  MET60      -0.2864
     41  CB        -1.9580   -2.8180    3.1880 C.3    60  MET60       0.0413
     42  CG        -1.5260   -1.7940    4.2240 C.3    60  MET60       0.0598
     43  SD        -1.1820   -0.1490    3.5500 S.3    60  MET60      -0.1393
     44  CE         0.5060    0.0970    4.0790 C.3    60  MET60       0.0692
     45  N         -0.9090    1.5500    0.2710 N.3    62  GLN62      -0.1245
     46  CA        -1.7400    2.7030    0.6650 C.3    62  GLN62       0.1566
     47  C         -1.6010    3.8150   -0.3680 C.2    62  GLN62       0.2260
     48  O         -0.5060    4.1230   -0.8640 O.2    62  GLN62      -0.2867
     49  CB        -1.3240    3.2220    2.0380 C.3    62  GLN62       0.0367
     50  CG        -2.1060    4.3810    2.5620 C.3    62  GLN62       0.0905
     51  CD        -1.6770    4.7990    3.9470 C.2    62  GLN62       0.2608
     52  OE1       -0.8650    4.1560    4.6010 O.2    62  GLN62      -0.2717
     53  NE2       -2.2730    5.8740    4.4450 N.am   62  GLN62      -0.0878
     54  N          0.3160   11.3940    2.6510 N.3    71  GLY71      -0.1210
     55  CA        -0.3130   10.7390    3.7840 C.3    71  GLY71       0.1956
     56  C         -1.0150   11.6830    4.7280 C.2    71  GLY71       0.2613
     57  O         -1.7990   11.2150    5.5630 O.2    71  GLY71      -0.2717
     58  N         -0.7640   13.0000    4.6250 N.am   72  THR72      -0.1938
     59  CA        -1.4200   13.9290    5.4860 C.3    72  THR72       0.2028
     60  C         -2.7480   14.4510    4.9550 C.2    72  THR72       0.2642
     61  O         -3.4930   15.0730    5.7250 O.2    72  THR72      -0.2714
     62  CB        -0.5090   15.1430    5.8250 C.3    72  THR72       0.1808
     63  OG1       -0.2730   15.9220    4.6420 O.3    72  THR72      -0.2208
     64  CG2        0.8240   14.7100    6.4530 C.3    72  THR72       0.0379
     65  N         -3.0500   14.2780    3.6660 N.am   73  GLY73      -0.1954
     66  CA        -4.2300   14.9110    3.0880 C.3    73  GLY73       0.1869
     67  C         -5.2420   13.9560    2.4620 C.2    73  GLY73       0.2309
     68  O         -5.4520   12.8300    2.9060 O.2    73  GLY73      -0.2863
     69  N         -8.2670    4.1010    4.7710 N.3   100  ALA100     -0.1231
     70  CA        -7.3390    4.6260    5.7590 C.3   100  ALA100      0.1694
     71  C         -8.0730    5.7090    6.5960 C.2   100  ALA100      0.2592
     72  O         -9.1080    6.2540    6.1340 O.2   100  ALA100     -0.2718
     73  CB        -6.1310    5.2330    5.0460 C.3   100  ALA100      0.0304
     74  N         -7.5650    6.0330    7.7820 N.am  101  ASN101     -0.1960
     75  CA        -8.1990    7.1040    8.5350 C.3   101  ASN101      0.1819
     76  C         -7.2040    7.6530    9.5530 C.2   101  ASN101      0.2621
     77  O         -6.0110    7.2710    9.5240 O.2   101  ASN101     -0.2715
     78  CB        -9.5190    6.6400    9.1580 C.3   101  ASN101      0.1195
     79  CG        -9.3280    5.5520   10.1730 C.2   101  ASN101      0.2630
     80  OD1       -8.4160    5.6090   11.0030 O.2   101  ASN101     -0.2716
     81  ND2      -10.1890    4.5410   10.1370 N.am  101  ASN101     -0.0877
     82  N         -7.6400    8.5800   10.3860 N.am  102  ALA102     -0.1963
     83  CA        -6.8120    9.0890   11.4890 C.3   102  ALA102      0.1728
     84  C         -7.6550    9.0490   12.7720 C.2   102  ALA102      0.2616
     85  O         -7.7230   10.0080   13.5370 O.2   102  ALA102     -0.2715
     86  CB        -6.3130   10.4980   11.1660 C.3   102  ALA102      0.0334
     87  N         -8.2970    7.8930   12.9890 N.am  103  GLY103     -0.1955
     88  CA        -9.1630    7.6900   14.1250 C.3   103  GLY103      0.1869
     89  C        -10.6390    7.6570   13.6920 C.2   103  GLY103      0.2309
     90  O        -10.9610    7.6600   12.4870 O.2   103  GLY103     -0.2863
     91  N        -13.0850    9.7240   10.4090 N.3   106  THR106     -0.1218
     92  CA       -12.1700   10.6090    9.7300 C.3   106  THR106      0.1862
     93  C        -11.8430   10.0600    8.3100 C.2   106  THR106      0.2287
     94  O        -10.7790   10.2870    7.7810 O.2   106  THR106     -0.2866
     95  CB       -10.8560   10.8200   10.4930 C.3   106  THR106      0.1770
     96  OG1      -10.2070    9.5550   10.7100 O.3   106  THR106     -0.2211
     97  CG2      -11.1050   11.5490   11.8140 C.3   106  THR106      0.0375
     98  N         -7.9840    8.6190    1.3570 N.3   110  GLN110     -0.1245
     99  CA        -6.9590    7.5960    1.3890 C.3   110  GLN110      0.1566
    100  C         -7.5580    6.2150    1.6700 C.2   110  GLN110      0.2260
    101  O         -8.5170    6.0440    2.4430 O.2   110  GLN110     -0.2867
    102  CB        -5.8940    7.9370    2.4180 C.3   110  GLN110      0.0367
    103  CG        -5.0380    9.1210    2.0040 C.3   110  GLN110      0.0905
    104  CD        -3.9200    9.3180    3.0080 C.2   110  GLN110      0.2608
    105  OE1       -3.1010    8.4020    3.2500 O.2   110  GLN110     -0.2717
    106  NE2       -3.8960   10.4840    3.6370 N.am  110  GLN110     -0.0878
    107  N         -6.4630    1.6240    1.2690 N.3   112  PHE112     -0.1241
    108  CA        -5.4110    0.6270    1.1370 C.3   112  PHE112      0.1605
    109  C         -5.9860   -0.6470    0.5220 C.2   112  PHE112      0.2264
    110  O         -7.1930   -0.9800    0.6560 O.2   112  PHE112     -0.2867
    111  CB        -4.6980    0.3220    2.4680 C.3   112  PHE112      0.0534
    112  CG        -5.5490   -0.1540    3.5970 C.ar  112  PHE112     -0.0203
    113  CD1       -6.3750    0.7260    4.3140 C.ar  112  PHE112     -0.0042
    114  CD2       -5.5070   -1.4890    4.0180 C.ar  112  PHE112     -0.0042
    115  CE1       -7.1120    0.2710    5.4150 C.ar  112  PHE112     -0.0003
    116  CE2       -6.2140   -1.9270    5.1300 C.ar  112  PHE112     -0.0003
    117  CZ        -7.0160   -1.0390    5.8350 C.ar  112  PHE112     -0.0000
    118  N         -2.4770   -9.2460    2.7430 N.3   116  ILE116     -0.1245
    119  CA        -2.6040  -10.2920    3.7330 C.3   116  ILE116      0.1561
    120  C         -3.9300  -10.0200    4.4380 C.2   116  ILE116      0.2260
    121  O         -4.5480   -8.9610    4.2850 O.2   116  ILE116     -0.2867
    122  CB        -1.4390  -10.2500    4.7770 C.3   116  ILE116      0.0252
    123  CG1       -1.1880  -11.6160    5.4200 C.3   116  ILE116      0.0019
    124  CG2       -1.5930   -9.0410    5.7590 C.3   116  ILE116      0.0019
    125  CD1       -0.0700  -12.3120    4.7510 C.3   116  ILE116      0.0001
    126  N         -6.7840   -7.3370   12.4990 N.3   120  TRP120     -0.1227
    127  CA        -6.6980   -6.4070   13.6070 C.3   120  TRP120      0.1737
    128  C         -7.2550   -5.0530   13.2760 C.2   120  TRP120      0.2595
    129  O         -7.4900   -4.2610   14.1970 O.2   120  TRP120     -0.2718
    130  CB        -5.2200   -6.2830   14.0780 C.3   120  TRP120      0.0564
    131  CG        -4.2650   -5.8770   12.9820 C.ar  120  TRP120      0.0003
    132  CD1       -3.8770   -4.6090   12.7030 C.ar  120  TRP120      0.0946
    133  CD2       -3.5800   -6.7380   12.0380 C.ar  120  TRP120      0.0152
    134  NE1       -2.9940   -4.6090   11.6190 N.ar  120  TRP120     -0.2442
    135  CE2       -2.8010   -5.9060   11.2110 C.ar  120  TRP120      0.0810
    136  CE3       -3.5420   -8.1490   11.8330 C.ar  120  TRP120      0.0012
    137  CZ2       -1.9830   -6.4340   10.1850 C.ar  120  TRP120      0.0191
    138  CZ3       -2.7250   -8.6620   10.8330 C.ar  120  TRP120      0.0001
    139  CH2       -1.9540   -7.8060   10.0180 C.ar  120  TRP120      0.0015
    140  N         -7.5490   -4.7810   11.9920 N.am  121  LEU121     -0.1980
    141  CA        -8.1520   -3.5060   11.5930 C.3   121  LEU121      0.1596
    142  C         -9.6940   -3.5510   11.5980 C.2   121  LEU121      0.2287
    143  O        -10.3350   -2.5240   11.3980 O.2   121  LEU121     -0.2864
    144  CB        -7.6200   -3.0810   10.2160 C.3   121  LEU121      0.0297
    145  CG        -6.0690   -2.9520   10.1950 C.3   121  LEU121      0.0022
    146  CD1       -5.6450   -2.5300    8.7680 C.3   121  LEU121      0.0001
    147  CD2       -5.5710   -1.8990   11.1910 C.3   121  LEU121      0.0001
    148  N        -11.4100    0.2770   10.5600 N.3   125  HIS125     -0.1241
    149  CA       -11.3770    0.7390    9.1720 C.3   125  HIS125      0.1621
    150  C        -12.5620    0.1560    8.4340 C.2   125  HIS125      0.2264
    151  O        -12.8320   -1.0380    8.5440 O.2   125  HIS125     -0.2867
    152  CB       -10.0530    0.3000    8.5090 C.3   125  HIS125      0.0745
    153  CG        -8.8840    0.9560    9.1660 C.ar  125  HIS125      0.0817
    154  ND1       -8.3070    2.1060    8.6780 N.ar  125  HIS125     -0.2268
    155  CD2       -8.2750    0.7220   10.3670 C.ar  125  HIS125      0.1154
    156  CE1       -7.3780    2.5350    9.5440 C.ar  125  HIS125      0.1986
    157  NE2       -7.3430    1.7110   10.5770 N.ar  125  HIS125     -0.2212
@<TRIPOS>BOND
     1    48    47    2
     2    47    46    1
     3    45    46    1
     4     1     2    1
     5   109   110    2
     6   109   108    1
     7    46    49    1
     8     4     3    2
     9   108   107    1
    10   108   111    1
    11     3     2    1
    12    98    99    1
    13    99   100    1
    14    99   102    1
    15    39    40    2
    16    39    38    1
    17     2     5    1
    18   100   101    2
    19   103   102    1
    20   103   104    1
    21    49    50    1
    22    12    13    1
    23    38    37    1
    24    38    41    1
    25    67    68    2
    26    67    66    1
    27   111   112    1
    28    20    21    1
    29    50    51    1
    30    54    55    1
    31    14    15    2
    32    14    13    1
    33   118   119    1
    34     5     6    1
    35   104   105    2
    36   104   106   am
    37    13    16    1
    38    66    65    1
    39    37    28   am
    40    41    42    1
    41    21    22    1
    42    21    24    1
    43    25    24    1
    44    43    44    1
    45    43    42    1
    46   112   114   ar
    47   112   113   ar
    48    29    28    2
    49    65    60   am
    50   119   120    1
    51   119   122    1
    52    55    56    1
    53    28    27    1
    54    51    53   am
    55    51    52    2
    56    26    22   am
    57    26    27    1
    58   114   116   ar
    59     6     7    1
    60    22    23    2
    61   121   120    2
    62   113   115   ar
    63    16    17    1
    64    16    18    1
    65    58    56   am
    66    58    59    1
    67    63    62    1
    68    56    57    2
    69   125   123    1
    70    27    30    1
    71    69    70    1
    72   122   123    1
    73   122   124    1
    74    17    19    1
    75    60    59    1
    76    60    61    2
    77    73    70    1
    78   116   117   ar
    79     7     8    1
    80   115   117   ar
    81    59    62    1
    82    30    31    1
    83    70    71    1
    84    62    64    1
    85    72    71    2
    86    31    32   ar
    87    31    33   ar
    88     8     9    2
    89    10     9    1
    90    71    74   am
    91    32    34   ar
    92    33    35   ar
    93     9    11    1
    94    34    36   ar
    95    35    36   ar
    96    94    93    2
    97    74    75    1
    98    93    92    1
    99   150   151    2
   100   150   149    1
   101   152   153    1
   102   152   149    1
   103    75    78    1
   104    75    76    1
   105   154   153   ar
   106   154   156   ar
   107   146   145    1
   108    78    79    1
   109   153   155   ar
   110   149   148    1
   111    77    76    2
   112   156   157   ar
   113    76    82   am
   114    92    91    1
   115    92    95    1
   116   139   137   ar
   117   139   138   ar
   118    81    79   am
   119    79    80    2
   120   137   135   ar
   121   145   144    1
   122   145   147    1
   123   144   141    1
   124   155   157   ar
   125    82    83    1
   126    95    96    1
   127    95    97    1
   128   138   136   ar
   129    86    83    1
   130   135   134   ar
   131   135   133   ar
   132   143   142    2
   133    83    84    1
   134   141   142    1
   135   141   140    1
   136   134   132   ar
   137   136   133   ar
   138   140   128   am
   139   133   131   ar
   140    90    89    2
   141   126   127    1
   142   132   131   ar
   143    84    87   am
   144    84    85    2
   145   131   130    1
   146    87    88    1
   147   128   127    1
   148   128   129    2
   149   127   130    1
   150    89    88    1
