@<TRIPOS>MOLECULE
tmp/2z6wB00.pdb
 198 193 0 0 0
SMALL
GASTEIGER

@<TRIPOS>ATOM
      1  N         -7.3130  -16.4980  -29.5000 N.3    53  HIS53      -0.1226
      2  CA        -6.5400  -15.6120  -30.3470 C.3    53  HIS53       0.1752
      3  C         -6.4340  -14.1810  -29.8400 C.2    53  HIS53       0.2595
      4  O         -5.5900  -13.4110  -30.3320 O.2    53  HIS53      -0.2718
      5  CB        -7.1190  -15.6010  -31.7780 C.3    53  HIS53       0.0759
      6  CG        -8.4980  -14.9980  -31.8710 C.ar   53  HIS53       0.0818
      7  ND1       -9.6340  -15.7310  -31.5730 N.ar   53  HIS53      -0.2268
      8  CD2       -8.9210  -13.7260  -32.1400 C.ar   53  HIS53       0.1154
      9  CE1      -10.6930  -14.9590  -31.7040 C.ar   53  HIS53       0.1986
     10  NE2      -10.3020  -13.7200  -32.0300 N.ar   53  HIS53      -0.2212
     11  N         -7.2790  -13.7910  -28.8710 N.am   54  ARG54      -0.1980
     12  CA        -7.3200  -12.4080  -28.4400 C.3    54  ARG54       0.1597
     13  C         -7.6210  -12.4560  -26.9580 C.2    54  ARG54       0.2287
     14  O         -8.6850  -12.9580  -26.5530 O.2    54  ARG54      -0.2864
     15  CB        -8.3580  -11.5900  -29.2220 C.3    54  ARG54       0.0334
     16  CG        -8.4180  -10.1650  -28.8070 C.3    54  ARG54       0.0492
     17  CD        -9.1900   -9.3180  -29.7950 C.3    54  ARG54       0.2205
     18  NE        -9.4030   -7.9590  -29.3290 N.pl3  54  ARG54      -0.0865
     19  CZ       -10.4580   -7.5540  -28.6350 C.cat  54  ARG54       0.5346
     20  NH1      -11.3880   -8.4180  -28.2620 N.pl3  54  ARG54       0.1354
     21  NH2      -10.5870   -6.2760  -28.2970 N.pl3  54  ARG54       0.1354
     22  N         -7.1740  -10.1520  -23.2150 N.3    56  ILE56      -0.1231
     23  CA        -6.8890   -8.8570  -22.6280 C.3    56  ILE56       0.1678
     24  C         -7.0070   -8.9530  -21.1080 C.2    56  ILE56       0.2434
     25  O         -8.0880   -9.1860  -20.5820 O.2    56  ILE56      -0.2733
     26  CB        -7.8160   -7.7440  -23.1810 C.3    56  ILE56       0.0265
     27  CG1       -7.6020   -7.6170  -24.7050 C.3    56  ILE56       0.0019
     28  CG2       -7.5840   -6.4410  -22.4600 C.3    56  ILE56       0.0020
     29  CD1       -8.6000   -6.6890  -25.4060 C.3    56  ILE56       0.0001
     30  N         -5.8890   -8.8170  -20.3820 N.am   57  PRO57      -0.2718
     31  CA        -5.9260   -8.8680  -18.9100 C.3    57  PRO57       0.1535
     32  C         -6.9010   -7.8570  -18.3660 C.2    57  PRO57       0.2599
     33  O         -7.0070   -6.7230  -18.8630 O.2    57  PRO57      -0.2715
     34  CB        -4.4700   -8.5390  -18.4930 C.3    57  PRO57       0.0310
     35  CG        -3.6700   -9.0390  -19.6760 C.3    57  PRO57       0.0237
     36  CD        -4.5050   -8.6240  -20.8750 C.3    57  PRO57       0.0939
     37  N         -7.6320   -8.2800  -17.3230 N.am   58  SER58      -0.1936
     38  CA        -8.6290   -7.4740  -16.6720 C.3    58  SER58       0.2055
     39  C         -9.9220   -7.3250  -17.4930 C.2    58  SER58       0.2643
     40  O        -10.8000   -6.5630  -17.0980 O.2    58  SER58      -0.2714
     41  CB        -8.1320   -6.1220  -16.1250 C.3    58  SER58       0.2130
     42  OG        -7.5440   -6.3120  -14.8540 O.3    58  SER58      -0.2179
     43  N        -10.0470   -8.0830  -18.5970 N.am   59  PHE59      -0.1959
     44  CA       -11.2160   -7.9890  -19.4550 C.3    59  PHE59       0.1771
     45  C        -11.7870   -9.3650  -19.8020 C.2    59  PHE59       0.2619
     46  O        -12.8430   -9.7490  -19.2650 O.2    59  PHE59      -0.2715
     47  CB       -10.8900   -7.1100  -20.6810 C.3    59  PHE59       0.0574
     48  CG       -12.0100   -6.9840  -21.6980 C.ar   59  PHE59      -0.0200
     49  CD1      -13.3560   -7.0160  -21.3370 C.ar   59  PHE59      -0.0042
     50  CD2      -11.6900   -6.8130  -23.0450 C.ar   59  PHE59      -0.0042
     51  CE1      -14.3460   -6.9050  -22.3000 C.ar   59  PHE59      -0.0003
     52  CE2      -12.6620   -6.6870  -24.0030 C.ar   59  PHE59      -0.0003
     53  CZ       -13.9990   -6.7180  -23.6230 C.ar   59  PHE59      -0.0000
     54  N        -11.1470  -10.0950  -20.7380 N.am   60  MET60      -0.1977
     55  CA       -11.7350  -11.3300  -21.2430 C.3    60  MET60       0.1605
     56  C        -10.7050  -12.1130  -22.0610 C.2    60  MET60       0.2287
     57  O         -9.6590  -11.5880  -22.4630 O.2    60  MET60      -0.2864
     58  CB       -13.0310  -11.0490  -22.0680 C.3    60  MET60       0.0413
     59  CG       -12.8650  -10.2230  -23.2890 C.3    60  MET60       0.0598
     60  SD       -12.2160  -11.1370  -24.7410 S.3    60  MET60      -0.1393
     61  CE       -10.8410  -10.1360  -25.1760 C.3    60  MET60       0.0692
     62  N        -10.8560  -14.4600  -25.6070 N.3    62  GLN62      -0.1245
     63  CA       -11.6950  -14.6700  -26.7950 C.3    62  GLN62       0.1566
     64  C        -11.1210  -15.8300  -27.6320 C.2    62  GLN62       0.2260
     65  O         -9.8750  -15.9260  -27.8350 O.2    62  GLN62      -0.2867
     66  CB       -11.7610  -13.3810  -27.6090 C.3    62  GLN62       0.0367
     67  CG       -12.5220  -13.4470  -28.9020 C.3    62  GLN62       0.0905
     68  CD       -12.5570  -12.1180  -29.6300 C.2    62  GLN62       0.2608
     69  OE1      -12.0250  -11.0990  -29.1660 O.2    62  GLN62      -0.2717
     70  NE2      -13.2430  -12.1220  -30.7890 N.am   62  GLN62      -0.0878
     71  N         -8.7060  -14.7750  -36.3010 N.3    71  GLY71      -0.1210
     72  CA        -9.6490  -13.9520  -35.5540 C.3    71  GLY71       0.1956
     73  C        -10.7840  -13.2330  -36.3130 C.2    71  GLY71       0.2613
     74  O        -11.5970  -12.5330  -35.6650 O.2    71  GLY71      -0.2717
     75  N        -10.8390  -13.3950  -37.6420 N.am   72  THR72      -0.1938
     76  CA       -11.8930  -12.7970  -38.4430 C.3    72  THR72       0.2028
     77  C        -13.0650  -13.7080  -38.7550 C.2    72  THR72       0.2642
     78  O        -14.0610  -13.2130  -39.2990 O.2    72  THR72      -0.2714
     79  CB       -11.3380  -12.3110  -39.7950 C.3    72  THR72       0.1808
     80  OG1      -10.9540  -13.4520  -40.5770 O.3    72  THR72      -0.2208
     81  CG2      -10.1690  -11.3460  -39.6350 C.3    72  THR72       0.0379
     82  N        -12.9810  -15.0140  -38.4880 N.am   73  GLY73      -0.1954
     83  CA       -14.0270  -15.9090  -38.9800 C.3    73  GLY73       0.1869
     84  C        -14.8560  -16.7100  -37.9880 C.2    73  GLY73       0.2309
     85  O        -15.1240  -16.2690  -36.8750 O.2    73  GLY73      -0.2863
     86  N        -19.0340  -13.3840  -29.0440 N.3   100  ALA100     -0.1231
     87  CA       -18.4480  -12.3000  -29.8200 C.3   100  ALA100      0.1694
     88  C        -19.3380  -12.0180  -31.0270 C.2   100  ALA100      0.2592
     89  O        -20.1100  -12.9020  -31.4410 O.2   100  ALA100     -0.2718
     90  CB       -17.0300  -12.6760  -30.2460 C.3   100  ALA100      0.0304
     91  N        -19.2480  -10.8250  -31.6170 N.am  101  ASN101     -0.1960
     92  CA       -20.0180  -10.5950  -32.8310 C.3   101  ASN101      0.1819
     93  C        -19.4140   -9.4610  -33.6210 C.2   101  ASN101      0.2621
     94  O        -18.2940   -9.0080  -33.2960 O.2   101  ASN101     -0.2715
     95  CB       -21.5140  -10.3870  -32.4860 C.3   101  ASN101      0.1195
     96  CG       -21.7560   -9.1440  -31.6690 C.2   101  ASN101      0.2630
     97  OD1      -21.1830   -8.0770  -31.9230 O.2   101  ASN101     -0.2716
     98  ND2      -22.6420   -9.2620  -30.6630 N.am  101  ASN101     -0.0877
     99  N        -20.0720   -9.0280  -34.6830 N.am  102  ALA102     -0.1963
    100  CA       -19.6350   -7.8790  -35.4740 C.3   102  ALA102      0.1728
    101  C        -20.7960   -6.9290  -35.6700 C.2   102  ALA102      0.2616
    102  O        -20.9930   -6.3740  -36.7520 O.2   102  ALA102     -0.2715
    103  CB       -19.0370   -8.3410  -36.8200 C.3   102  ALA102      0.0334
    104  N        -21.5800   -6.7610  -34.5930 N.am  103  GLY103     -0.1955
    105  CA       -22.7580   -5.9490  -34.6110 C.3   103  GLY103      0.1869
    106  C        -23.9990   -6.8090  -34.4300 C.2   103  GLY103      0.2309
    107  O        -23.9130   -8.0210  -34.2140 O.2   103  GLY103     -0.2863
    108  N        -25.1640  -11.0800  -35.6960 N.3   106  THR106     -0.1218
    109  CA       -24.0140  -11.5940  -36.4230 C.3   106  THR106      0.1862
    110  C        -23.2980  -12.7040  -35.6780 C.2   106  THR106      0.2287
    111  O        -22.0860  -12.9430  -35.9370 O.2   106  THR106     -0.2866
    112  CB       -23.0210  -10.5030  -36.8280 C.3   106  THR106      0.1770
    113  OG1      -22.5430   -9.8320  -35.6550 O.3   106  THR106     -0.2211
    114  CG2      -23.6400   -9.5050  -37.8160 C.3   106  THR106      0.0375
    115  N        -17.4520  -17.4490  -32.6320 N.3   110  GLN110     -0.1245
    116  CA       -16.5110  -16.8770  -31.6790 C.3   110  GLN110      0.1566
    117  C        -17.2180  -16.4710  -30.3830 C.2   110  GLN110      0.2260
    118  O        -18.3900  -16.0110  -30.3930 O.2   110  GLN110     -0.2867
    119  CB       -15.8130  -15.6600  -32.2790 C.3   110  GLN110      0.0367
    120  CG       -14.7980  -16.0050  -33.3620 C.3   110  GLN110      0.0905
    121  CD       -13.9590  -14.8140  -33.7440 C.2   110  GLN110      0.2608
    122  OE1      -13.4340  -14.1130  -32.8730 O.2   110  GLN110     -0.2717
    123  NE2      -13.8880  -14.5540  -35.0510 N.am  110  GLN110     -0.0878
    124  N        -16.3790  -15.4100  -25.8650 N.3   112  PHE112     -0.1241
    125  CA       -15.4220  -14.9310  -24.8970 C.3   112  PHE112      0.1605
    126  C        -15.8500  -15.3820  -23.5150 C.2   112  PHE112      0.2264
    127  O        -17.0420  -15.6040  -23.2170 O.2   112  PHE112     -0.2867
    128  CB       -15.1940  -13.4010  -24.9620 C.3   112  PHE112      0.0534
    129  CG       -16.4010  -12.5390  -24.7500 C.ar  112  PHE112     -0.0203
    130  CD1      -17.3620  -12.3810  -25.7590 C.ar  112  PHE112     -0.0042
    131  CD2      -16.5600  -11.8050  -23.5710 C.ar  112  PHE112     -0.0042
    132  CE1      -18.4340  -11.5010  -25.5880 C.ar  112  PHE112     -0.0003
    133  CE2      -17.6300  -10.9290  -23.4300 C.ar  112  PHE112     -0.0003
    134  CZ       -18.5630  -10.7710  -24.4210 C.ar  112  PHE112     -0.0000
    135  N        -14.0140  -10.0930  -15.6460 N.3   116  ILE116     -0.1245
    136  CA       -14.6550   -9.0810  -14.8220 C.3   116  ILE116      0.1561
    137  C        -16.0940   -8.9180  -15.3080 C.2   116  ILE116      0.2260
    138  O        -16.4610   -9.4180  -16.3780 O.2   116  ILE116     -0.2867
    139  CB       -13.9390   -7.7250  -14.8880 C.3   116  ILE116      0.0252
    140  CG1      -13.9360   -7.1720  -16.3130 C.3   116  ILE116      0.0019
    141  CG2      -12.4920   -7.8450  -14.3400 C.3   116  ILE116      0.0019
    142  CD1      -13.6800   -5.6680  -16.3760 C.3   116  ILE116      0.0001
    143  N        -21.0430   -2.8910  -20.1560 N.3   120  TRP120     -0.1227
    144  CA       -21.2170   -2.1170  -21.3600 C.3   120  TRP120      0.1737
    145  C        -21.5350   -3.0190  -22.5630 C.2   120  TRP120      0.2595
    146  O        -21.9380   -2.5430  -23.6100 O.2   120  TRP120     -0.2718
    147  CB       -19.9930   -1.2360  -21.6530 C.3   120  TRP120      0.0564
    148  CG       -18.7060   -1.9940  -21.8950 C.ar  120  TRP120      0.0003
    149  CD1      -18.1720   -2.3220  -23.1140 C.ar  120  TRP120      0.0946
    150  CD2      -17.7860   -2.4870  -20.9060 C.ar  120  TRP120      0.0152
    151  NE1      -16.9920   -3.0360  -22.9570 N.ar  120  TRP120     -0.2442
    152  CE2      -16.7460   -3.1630  -21.6160 C.ar  120  TRP120      0.0810
    153  CE3      -17.7190   -2.4330  -19.5070 C.ar  120  TRP120      0.0012
    154  CZ2      -15.6670   -3.7670  -20.9570 C.ar  120  TRP120      0.0191
    155  CZ3      -16.6680   -3.0310  -18.8570 C.ar  120  TRP120      0.0001
    156  CH2      -15.6310   -3.6810  -19.5760 C.ar  120  TRP120      0.0015
    157  N        -21.3410   -4.3400  -22.3970 N.am  121  LEU121     -0.1980
    158  CA       -21.6690   -5.3260  -23.4310 C.3   121  LEU121      0.1596
    159  C        -23.1210   -5.8470  -23.2610 C.2   121  LEU121      0.2287
    160  O        -23.6190   -6.5390  -24.1620 O.2   121  LEU121     -0.2864
    161  CB       -20.6460   -6.4580  -23.4140 C.3   121  LEU121      0.0297
    162  CG       -19.2140   -5.9850  -23.6130 C.3   121  LEU121      0.0022
    163  CD1      -18.2570   -7.1890  -23.5550 C.3   121  LEU121      0.0001
    164  CD2      -19.0200   -5.2040  -24.9250 C.3   121  LEU121      0.0001
    165  N        -25.8150   -6.0420  -26.1180 N.3   124  LYS124     -0.1231
    166  CA       -25.0100   -6.0170  -27.3200 C.3   124  LYS124      0.1693
    167  C        -24.5490   -7.4430  -27.6620 C.2   124  LYS124      0.2592
    168  O        -24.5600   -7.8250  -28.8350 O.2   124  LYS124     -0.2718
    169  CB       -23.8330   -5.0260  -27.1890 C.3   124  LYS124      0.0285
    170  CG       -24.3800   -3.5860  -26.9200 C.3   124  LYS124      0.0035
    171  CD       -23.4970   -2.3740  -27.1850 C.3   124  LYS124      0.0206
    172  CE       -24.3360   -1.1320  -27.5480 C.3   124  LYS124      0.1093
    173  NZ       -23.3950    0.0030  -27.9090 N.3   124  LYS124     -0.1314
    174  N        -24.1470   -8.2110  -26.6590 N.am  125  HIS125     -0.1976
    175  CA       -23.6390   -9.5660  -26.8040 C.3   125  HIS125      0.1656
    176  C        -24.5280  -10.5260  -26.0170 C.2   125  HIS125      0.2291
    177  O        -24.8990  -10.2110  -24.8730 O.2   125  HIS125     -0.2864
    178  CB       -22.1780   -9.6580  -26.3020 C.3   125  HIS125      0.0771
    179  CG       -21.2660   -8.8090  -27.1200 C.ar  125  HIS125      0.0820
    180  ND1      -20.5000   -9.3230  -28.1440 N.ar  125  HIS125     -0.2267
    181  CD2      -21.1080   -7.4700  -27.1700 C.ar  125  HIS125      0.1154
    182  CE1      -19.9020   -8.3090  -28.7630 C.ar  125  HIS125      0.1986
    183  NE2      -20.2420   -7.1700  -28.2030 N.ar  125  HIS125     -0.2212
    184  N         -2.6710   -5.6460  -23.3980 N.3   147  LYS147     -0.1231
    185  CA        -3.6680   -4.5960  -23.5350 C.3   147  LYS147      0.1693
    186  C         -4.2770   -4.5530  -24.9430 C.2   147  LYS147      0.2592
    187  O         -5.4840   -4.2790  -25.1130 O.2   147  LYS147     -0.2718
    188  CB        -3.0190   -3.2690  -23.1450 C.3   147  LYS147      0.0285
    189  CG        -3.9880   -2.1210  -22.9480 C.3   147  LYS147      0.0035
    190  CD        -3.2590   -0.8770  -22.5150 C.3   147  LYS147      0.0206
    191  CE        -4.1020    0.3730  -22.6510 C.3   147  LYS147      0.1093
    192  NZ        -3.2680    1.5770  -22.3590 N.3   147  LYS147     -0.1314
    193  N         -3.4200   -4.8490  -25.9360 N.am  148  SER148     -0.1952
    194  CA        -3.8530   -4.8310  -27.3110 C.3   148  SER148      0.1924
    195  C         -4.6710   -6.0820  -27.6990 C.2   148  SER148      0.2314
    196  O         -5.3290   -6.1260  -28.7930 O.2   148  SER148     -0.2863
    197  CB        -2.6220   -4.7110  -28.2330 C.3   148  SER148      0.2116
    198  OG        -1.9540   -5.9540  -28.3310 O.3   148  SER148     -0.2180
@<TRIPOS>BOND
     1    80    79    1
     2    79    81    1
     3    79    76    1
     4    78    77    2
     5    83    82    1
     6    83    84    1
     7    77    82   am
     8    77    76    1
     9    76    75    1
    10    84    85    2
    11   114   112    1
    12    75    73   am
    13   112   109    1
    14   112   113    1
    15   103   100    1
    16   102   101    2
    17   109   108    1
    18   109   110    1
    19    73    74    2
    20    73    72    1
    21    71    72    1
    22   111   110    2
    23   101   100    1
    24   101   104   am
    25   100    99    1
    26   123   121   am
    27    99    93   am
    28   105   104    1
    29   105   106    1
    30   106   107    2
    31   121   120    1
    32   121   122    2
    33    93    94    2
    34    93    92    1
    35   120   119    1
    36    92    95    1
    37    92    91    1
    38   115   116    1
    39    95    96    1
    40   119   116    1
    41     8    10   ar
    42     8     6   ar
    43    10     9   ar
    44    97    96    2
    45     6     5    1
    46     6     7   ar
    47     5     2    1
    48     9     7   ar
    49   116   117    1
    50    96    98   am
    51    91    88   am
    52    89    88    2
    53    88    87    1
    54    70    68   am
    55   118   117    2
    56     2     3    1
    57     2     1    1
    58     4     3    2
    59    90    87    1
    60     3    11   am
    61    87    86    1
    62    17    18    1
    63    17    16    1
    64    68    69    2
    65    68    67    1
    66    18    19    2
    67    15    16    1
    68    15    12    1
    69    67    66    1
    70    11    12    1
    71   168   167    2
    72   196   195    2
    73   182   183   ar
    74   182   180   ar
    75    19    21    1
    76    19    20    1
    77    12    13    1
    78   198   197    1
    79   197   194    1
    80   183   181   ar
    81   180   179   ar
    82   173   172    1
    83    65    64    2
    84   195   194    1
    85   167   166    1
    86   167   174   am
    87    64    63    1
    88    66    63    1
    89   172   171    1
    90   166   169    1
    91   166   165    1
    92   194   193    1
    93   169   170    1
    94   171   170    1
    95   181   179   ar
    96   179   178    1
    97    13    14    2
    98   175   174    1
    99   175   178    1
   100   175   176    1
   101    63    62    1
   102   176   177    2
   103   193   186   am
   104   124   125    1
   105   130   132   ar
   106   130   129   ar
   107   132   134   ar
   108    29    27    1
   109    61    60    1
   110   187   186    2
   111   128   125    1
   112   128   129    1
   113   186   185    1
   114   164   162    1
   115   125   126    1
   116   129   131   ar
   117    60    59    1
   118    27    26    1
   119   134   133   ar
   120   160   159    2
   121    52    53   ar
   122    52    50   ar
   123    53    51   ar
   124   162   163    1
   125   162   161    1
   126   146   145    2
   127   131   133   ar
   128   185   184    1
   129   185   188    1
   130   126   127    2
   131   158   161    1
   132   158   159    1
   133   158   157    1
   134    59    58    1
   135    22    23    1
   136    26    23    1
   137    26    28    1
   138   188   189    1
   139   149   151   ar
   140   149   148   ar
   141    50    48   ar
   142   151   152   ar
   143   189   190    1
   144   191   190    1
   145   191   192    1
   146    23    24    1
   147   145   157   am
   148   145   144    1
   149    57    56    2
   150    51    49   ar
   151    58    55    1
   152    56    55    1
   153   148   147    1
   154   148   150   ar
   155    48    49   ar
   156    48    47    1
   157   147   144    1
   158   152   154   ar
   159   152   150   ar
   160   144   143    1
   161    55    54    1
   162    24    25    2
   163    24    30   am
   164   154   156   ar
   165   150   153   ar
   166    36    30    1
   167    36    35    1
   168    54    45   am
   169    47    44    1
   170    30    31    1
   171    45    44    1
   172    45    46    2
   173    35    34    1
   174   156   155   ar
   175   153   155   ar
   176    44    43    1
   177    31    34    1
   178    31    32    1
   179    33    32    2
   180    43    39   am
   181    32    37   am
   182    39    40    2
   183    39    38    1
   184    37    38    1
   185    38    41    1
   186   138   137    2
   187   142   140    1
   188   140   139    1
   189    41    42    1
   190   135   136    1
   191   137   136    1
   192   139   136    1
   193   139   141    1
