@<TRIPOS>MOLECULE
tmp/2z71B00.pdb
 131 124 0 0 0
SMALL
GASTEIGER

@<TRIPOS>ATOM
      1  N         17.0080   78.5820   15.5270 N.3     1  GLY1       -0.1225
      2  CA        17.3350   77.7080   16.7260 C.3     1  GLY1        0.1811
      3  C         16.7460   78.1290   18.0280 C.2     1  GLY1        0.2280
      4  O         15.7140   78.6180   18.0610 O.2     1  GLY1       -0.2866
      5  N         19.9770   76.6650   13.7330 N.3    20  ASP20      -0.1225
      6  CA        19.3290   75.7790   12.7430 C.3    20  ASP20       0.1805
      7  C         19.2670   76.4200   11.4310 C.2    20  ASP20       0.2598
      8  O         18.6420   77.3540   11.2830 O.2    20  ASP20      -0.2718
      9  CB        17.9280   75.4210   13.1850 C.3    20  ASP20       0.1424
     10  CG        17.9050   74.7980   14.4690 C.2    20  ASP20       0.3668
     11  OD1       18.8870   74.0190   14.7930 O.co2  20  ASP20      -0.2456
     12  OD2       16.9370   74.9490   15.2880 O.co2  20  ASP20      -0.2456
     13  N         19.8870   75.8250   10.4480 N.am   21  PHE21      -0.1962
     14  CA        19.7910   76.3660    9.0580 C.3    21  PHE21       0.1771
     15  C         19.7450   75.2370    7.9480 C.2    21  PHE21       0.2620
     16  O         19.9990   74.0830    8.2310 O.2    21  PHE21      -0.2715
     17  CB        20.9360   77.4000    8.7740 C.3    21  PHE21       0.0574
     18  CG        20.4990   78.5610    7.9610 C.ar   21  PHE21      -0.0200
     19  CD1       19.7110   79.4760    8.4700 C.ar   21  PHE21      -0.0042
     20  CD2       20.9260   78.6980    6.5970 C.ar   21  PHE21      -0.0042
     21  CE1       19.3130   80.5770    7.7080 C.ar   21  PHE21      -0.0003
     22  CE2       20.5240   79.7550    5.8410 C.ar   21  PHE21      -0.0003
     23  CZ        19.7040   80.6830    6.3830 C.ar   21  PHE21      -0.0000
     24  N         19.3890   75.6220    6.7120 N.am   22  THR22      -0.1951
     25  CA        19.2620   74.6950    5.5740 C.3    22  THR22       0.1897
     26  C         20.5980   74.4150    4.8470 C.2    22  THR22       0.2313
     27  O         20.6540   73.7160    3.8440 O.2    22  THR22      -0.2863
     28  CB        18.2460   75.2850    4.5950 C.3    22  THR22       0.1794
     29  OG1       16.9740   74.6700    4.8140 O.3    22  THR22      -0.2208
     30  CG2       18.6860   75.0140    3.1530 C.3    22  THR22       0.0378
     31  N         16.1940   83.2950   14.1770 N.3    82  TYR82      -0.1241
     32  CA        15.1260   83.5440   13.2020 C.3    82  TYR82       0.1605
     33  C         13.9210   83.9470   13.8860 C.2    82  TYR82       0.2264
     34  O         13.7240   83.6230   14.9850 O.2    82  TYR82      -0.2867
     35  CB        14.8700   82.3380   12.3790 C.3    82  TYR82       0.0534
     36  CG        14.8490   82.6100   10.8920 C.ar   82  TYR82      -0.0201
     37  CD1       16.0220   83.0470   10.2080 C.ar   82  TYR82      -0.0009
     38  CD2       13.6950   82.3720   10.1420 C.ar   82  TYR82      -0.0009
     39  CE1       16.0260   83.1910    8.8810 C.ar   82  TYR82       0.0417
     40  CE2       13.6670   82.5640    8.8160 C.ar   82  TYR82       0.0417
     41  CZ        14.8180   82.9830    8.1520 C.ar   82  TYR82       0.1957
     42  OH        14.7530   83.2490    6.7150 O.3    82  TYR82      -0.2866
     43  N         10.4510   84.2930   11.9640 N.3    84  ALA84      -0.1245
     44  CA         9.7110   84.3010   10.6760 C.3    84  ALA84       0.1562
     45  C          8.2840   84.7760   10.7740 C.2    84  ALA84       0.2260
     46  O          7.5860   84.4400   11.6730 O.2    84  ALA84      -0.2867
     47  CB         9.7600   82.9970   10.0590 C.3    84  ALA84       0.0290
     48  N         18.9420   88.2320    1.1010 N.3   138  PHE138     -0.1241
     49  CA        17.8510   88.9700    1.6100 C.3   138  PHE138      0.1605
     50  C         18.0230   89.2230    3.0500 C.2   138  PHE138      0.2264
     51  O         18.8590   88.6260    3.6930 O.2   138  PHE138     -0.2867
     52  CB        16.5210   88.2270    1.3490 C.3   138  PHE138      0.0534
     53  CG        16.2200   87.1310    2.3480 C.ar  138  PHE138     -0.0203
     54  CD1       17.0840   86.1070    2.5400 C.ar  138  PHE138     -0.0042
     55  CD2       14.9900   87.1080    3.0320 C.ar  138  PHE138     -0.0042
     56  CE1       16.7730   85.0180    3.5030 C.ar  138  PHE138     -0.0003
     57  CE2       14.6940   86.0760    3.9730 C.ar  138  PHE138     -0.0003
     58  CZ        15.6190   85.0380    4.1920 C.ar  138  PHE138     -0.0000
     59  N         12.3110   80.7830   18.4230 N.3   175  ASN175     -0.1225
     60  CA        11.9030   81.5680   17.2800 C.3   175  ASN175      0.1785
     61  C         10.5040   82.0780   17.5030 C.2   175  ASN175      0.2597
     62  O         10.1850   82.3800   18.5600 O.2   175  ASN175     -0.2718
     63  CB        12.0400   80.7440   15.9920 C.3   175  ASN175      0.1169
     64  CG        13.5100   80.2390   15.7640 C.2   175  ASN175      0.2627
     65  OD1       13.7790   79.0860   15.8430 O.2   175  ASN175     -0.2716
     66  ND2       14.4310   81.1730   15.5460 N.am  175  ASN175     -0.0877
     67  N          9.7510   82.3430   16.4390 N.am  176  SER176     -0.1952
     68  CA         8.3990   82.9780   16.6140 C.3   176  SER176      0.1924
     69  C          7.3940   81.9850   17.2340 C.2   176  SER176      0.2314
     70  O          7.5830   80.7650   17.1580 O.2   176  SER176     -0.2863
     71  CB         7.8680   83.5490   15.2910 C.3   176  SER176      0.2116
     72  OG         8.5150   82.9940   14.2110 O.3   176  SER176     -0.2180
     73  N          9.1520   75.9070   16.5310 N.3   225  PRO225     -0.2116
     74  CA         9.6170   76.8720   17.4600 C.3   225  PRO225      0.1372
     75  C          8.8480   76.8380   18.8590 C.2   225  PRO225      0.2244
     76  O          9.4200   77.0600   19.8450 O.2   225  PRO225     -0.2868
     77  CB         9.2990   78.1900   16.7670 C.3   225  PRO225      0.0268
     78  CG         9.1970   77.8490   15.2910 C.3   225  PRO225      0.0207
     79  CD         8.7190   76.5200   15.2610 C.3   225  PRO225      0.0892
     80  N         10.0300   73.7690   20.9380 N.3   228  ARG228     -0.1245
     81  CA        11.3860   74.0010   21.3740 C.3   228  ARG228      0.1563
     82  C         11.4520   74.9450   22.5990 C.2   228  ARG228      0.2260
     83  O         12.1880   74.7140   23.5160 O.2   228  ARG228     -0.2867
     84  CB        12.1770   74.5990   20.2360 C.3   228  ARG228      0.0307
     85  CG        13.0360   73.6370   19.4890 C.3   228  ARG228      0.0489
     86  CD        12.5260   73.2710   18.0750 C.3   228  ARG228      0.2205
     87  NE        12.5900   74.3870   16.9670 N.pl3 228  ARG228     -0.0865
     88  CZ        13.0740   75.6620   17.1040 C.cat 228  ARG228      0.5346
     89  NH1       13.7800   76.0310   18.1910 N.pl3 228  ARG228      0.1354
     90  NH2       12.9280   76.5150   16.1080 N.pl3 228  ARG228      0.1354
     91  N         11.5930   71.5790    4.4300 N.3   268  THR268     -0.1203
     92  CA        11.1160   72.8690    4.1900 C.3   268  THR268      0.1994
     93  C          9.9760   72.7630    3.1400 C.2   268  THR268      0.2618
     94  O          9.6050   71.7270    2.8050 O.2   268  THR268     -0.2717
     95  CB        12.3040   73.7200    3.6780 C.3   268  THR268      0.1784
     96  OG1       12.7120   74.6850    4.7020 O.3   268  THR268     -0.2211
     97  CG2       11.9230   74.5400    2.5180 C.3   268  THR268      0.0376
     98  N          9.3490   73.8840    2.7810 N.am  269  ASN269     -0.1960
     99  CA         8.2810   73.8530    1.7440 C.3   269  ASN269      0.1819
    100  C          8.8610   73.5690    0.3790 C.2   269  ASN269      0.2621
    101  O          8.2220   72.9120   -0.4580 O.2   269  ASN269     -0.2715
    102  CB         7.4690   75.1730    1.7160 C.3   269  ASN269      0.1195
    103  CG         7.8120   76.1010    2.8650 C.2   269  ASN269      0.2630
    104  OD1        6.9160   76.5690    3.5820 O.2   269  ASN269     -0.2716
    105  ND2        9.1140   76.4630    2.9930 N.am  269  ASN269     -0.0877
    106  N         10.1130   74.0340    0.1600 N.am  270  GLU270     -0.1977
    107  CA        10.8140   73.6610   -1.0490 C.3   270  GLU270      0.1602
    108  C         11.5870   72.3720   -0.8250 C.2   270  GLU270      0.2287
    109  O         12.3640   71.9280   -1.6600 O.2   270  GLU270     -0.2864
    110  CB        11.7790   74.7920   -1.4140 C.3   270  GLU270      0.0415
    111  CG        11.1020   76.1620   -1.4120 C.3   270  GLU270      0.1163
    112  CD        11.7120   77.0170   -0.3260 C.2   270  GLU270      0.3649
    113  OE1       12.2660   76.4600    0.6110 O.co2 270  GLU270     -0.2457
    114  OE2       11.6180   78.2390   -0.4230 O.co2 270  GLU270     -0.2457
    115  N         13.9850   71.8210    1.5310 N.3   272  LYS272     -0.1245
    116  CA        15.3540   71.9900    2.0440 C.3   272  LYS272      0.1561
    117  C         15.4640   71.3340    3.4070 C.2   272  LYS272      0.2260
    118  O         14.5990   71.4790    4.2230 O.2   272  LYS272     -0.2867
    119  CB        15.6900   73.4750    2.1750 C.3   272  LYS272      0.0271
    120  CG        15.5870   74.2740    0.8990 C.3   272  LYS272      0.0035
    121  CD        16.5700   75.5070    0.9650 C.3   272  LYS272      0.0206
    122  CE        16.0750   76.6590    0.0640 C.3   272  LYS272      0.1093
    123  NZ        16.5750   76.5360   -1.3880 N.3   272  LYS272     -0.1314
    124  N         16.3360   71.2600    7.0270 N.3   274  ASP274     -0.1239
    125  CA        16.6680   72.2200    8.1050 C.3   274  ASP274      0.1674
    126  C         17.2490   71.4330    9.3430 C.2   274  ASP274      0.2266
    127  O         16.6630   70.5050    9.7950 O.2   274  ASP274     -0.2867
    128  CB        15.4210   73.0140    8.4810 C.3   274  ASP274      0.1410
    129  CG        15.6980   74.1490    9.5870 C.2   274  ASP274      0.3668
    130  OD1       16.6580   74.9680    9.4050 O.co2 274  ASP274     -0.2456
    131  OD2       14.9050   74.3710   10.5770 O.co2 274  ASP274     -0.2456
@<TRIPOS>BOND
     1   109   108    2
     2   110   111    1
     3   110   107    1
     4   111   112    1
     5   123   122    1
     6   107   108    1
     7   107   106    1
     8   101   100    2
     9   114   112   ar
    10   112   113   ar
    11   122   121    1
    12   106   100   am
    13   100    99    1
    14   120   121    1
    15   120   119    1
    16    48    49    1
    17    52    49    1
    18    52    53    1
    19   115   116    1
    20    49    50    1
    21   102    99    1
    22   102   103    1
    23    99    98    1
    24   116   119    1
    25   116   117    1
    26    53    54   ar
    27    53    55   ar
    28    97    95    1
    29    54    56   ar
    30    98    93   am
    31    94    93    2
    32   103   105   am
    33   103   104    2
    34    55    57   ar
    35    50    51    2
    36    93    92    1
    37    30    28    1
    38   117   118    2
    39    56    58   ar
    40    95    92    1
    41    95    96    1
    42    27    26    2
    43    57    58   ar
    44    92    91    1
    45    28    29    1
    46    28    25    1
    47    26    25    1
    48    25    24    1
    49    22    23   ar
    50    22    20   ar
    51    23    21   ar
    52    20    18   ar
    53    24    15   am
    54    42    41    1
    55   124   125    1
    56    21    19   ar
    57    15    16    2
    58    15    14    1
    59    18    19   ar
    60    18    17    1
    61   125   128    1
    62   125   126    1
    63    41    40   ar
    64    41    39   ar
    65   128   129    1
    66    17    14    1
    67    40    38   ar
    68    39    37   ar
    69    14    13    1
    70   126   127    2
    71   130   129   ar
    72   129   131   ar
    73    47    44    1
    74    38    36   ar
    75    37    36   ar
    76    13     7   am
    77    44    45    1
    78    44    43    1
    79    45    46    2
    80    36    35    1
    81     8     7    2
    82     7     6    1
    83    35    32    1
    84     6     9    1
    85     6     5    1
    86     9    10    1
    87    32    33    1
    88    32    31    1
    89    33    34    2
    90    72    71    1
    91    10    11   ar
    92    10    12   ar
    93    79    78    1
    94    79    73    1
    95    71    68    1
    96    78    77    1
    97     1     2    1
    98    66    64   am
    99    64    65    2
   100    64    63    1
   101    63    60    1
   102    90    88    1
   103    67    68    1
   104    67    61   am
   105    73    74    1
   106    68    69    1
   107     2     3    1
   108    77    74    1
   109    87    88    2
   110    87    86    1
   111    88    89    1
   112    70    69    2
   113    60    61    1
   114    60    59    1
   115    74    75    1
   116    61    62    2
   117     3     4    2
   118    86    85    1
   119    75    76    2
   120    85    84    1
   121    84    81    1
   122    80    81    1
   123    81    82    1
   124    82    83    2
