@<TRIPOS>MOLECULE
tmp/2z73A04.pdb
 93 89 0 0 0
SMALL
GASTEIGER

@<TRIPOS>ATOM
      1  N          2.1020   31.1060   66.4120 N.3    38  ILE38      -0.1231
      2  CA         1.4200   30.5360   67.5680 C.3    38  ILE38       0.1692
      3  C          2.2280   30.7280   68.8590 C.2    38  ILE38       0.2591
      4  O          1.7380   31.3240   69.8290 O.2    38  ILE38      -0.2718
      5  CB         1.1540   29.0210   67.3660 C.3    38  ILE38       0.0266
      6  CG1        0.1530   28.8120   66.2320 C.3    38  ILE38       0.0019
      7  CG2        0.6290   28.3970   68.6490 C.3    38  ILE38       0.0020
      8  CD1        0.0570   27.3640   65.7850 C.3    38  ILE38       0.0001
      9  N          3.4590   30.2230   68.8750 N.am   39  ILE39      -0.1980
     10  CA         4.2920   30.3310   70.0590 C.3    39  ILE39       0.1595
     11  C          4.5440   31.7810   70.4080 C.2    39  ILE39       0.2287
     12  O          4.4000   32.1820   71.5680 O.2    39  ILE39      -0.2864
     13  CB         5.6360   29.6060   69.8690 C.3    39  ILE39       0.0276
     14  CG1        5.3880   28.0980   69.7150 C.3    39  ILE39       0.0022
     15  CG2        6.5590   29.8750   71.0520 C.3    39  ILE39       0.0022
     16  CD1        6.6480   27.2630   69.5590 C.3    39  ILE39       0.0001
     17  N          1.2650   33.3860   71.4860 N.3    42  GLY42      -0.1210
     18  CA         0.8790   32.7060   72.7020 C.3    42  GLY42       0.1956
     19  C          1.7480   33.1390   73.8660 C.2    42  GLY42       0.2612
     20  O          1.2560   33.6880   74.8650 O.2    42  GLY42      -0.2717
     21  N          3.0520   32.9100   73.7340 N.am   43  GLY43      -0.1956
     22  CA         3.9720   33.2760   74.7920 C.3    43  GLY43       0.1869
     23  C          4.0180   34.7510   75.1450 C.2    43  GLY43       0.2309
     24  O          4.0570   35.1160   76.3150 O.2    43  GLY43      -0.2863
     25  N          0.9160   35.8670   77.1110 N.3    46  ILE46      -0.1245
     26  CA         0.9910   35.4720   78.5000 C.3    46  ILE46       0.1561
     27  C          1.8150   36.4400   79.3380 C.2    46  ILE46       0.2260
     28  O          1.4130   36.8020   80.4400 O.2    46  ILE46      -0.2867
     29  CB         1.5940   34.0750   78.6450 C.3    46  ILE46       0.0252
     30  CG1        0.7320   33.0660   77.8900 C.3    46  ILE46       0.0019
     31  CG2        1.7020   33.7120   80.1100 C.3    46  ILE46       0.0019
     32  CD1        1.1730   31.6330   78.0660 C.3    46  ILE46       0.0001
     33  N          9.7050   34.8850   76.1360 N.3   304  PRO304     -0.2102
     34  CA         8.7350   34.2440   77.0240 C.3   304  PRO304      0.1504
     35  C          9.2160   32.8840   77.5490 C.2   304  PRO304      0.2575
     36  O          9.1140   32.5970   78.7510 O.2   304  PRO304     -0.2718
     37  CB         7.4910   34.1380   76.1510 C.3   304  PRO304      0.0282
     38  CG         7.5870   35.3870   75.3260 C.3   304  PRO304      0.0208
     39  CD         9.0450   35.3650   74.9100 C.3   304  PRO304      0.0893
     40  N          9.7460   32.0470   76.6660 N.am  305  MET305     -0.1980
     41  CA        10.2310   30.7520   77.1060 C.3   305  MET305      0.1605
     42  C         11.4490   30.9260   78.0250 C.2   305  MET305      0.2287
     43  O         11.6140   30.1930   79.0010 O.2   305  MET305     -0.2864
     44  CB        10.5780   29.8770   75.9010 C.3   305  MET305      0.0413
     45  CG         9.4240   29.7450   74.9140 C.3   305  MET305      0.0598
     46  SD         9.6300   28.4850   73.6340 S.3   305  MET305     -0.1393
     47  CE        10.5170   29.4010   72.3590 C.3   305  MET305      0.0692
     48  N         10.1280   31.8760   81.4200 N.3   308  SER308     -0.1217
     49  CA         9.4760   30.7480   82.0850 C.3   308  SER308      0.1889
     50  C         10.4010   29.7520   82.7710 C.2   308  SER308      0.2288
     51  O          9.9560   28.9890   83.6330 O.2   308  SER308     -0.2866
     52  CB         8.5710   30.0050   81.1010 C.3   308  SER308      0.2089
     53  OG         9.3220   29.2520   80.1760 O.3   308  SER308     -0.2183
     54  N          7.7440   35.5410   87.8160 N.3   314  PHE314     -0.1241
     55  CA         6.9700   35.1990   86.6290 C.3   314  PHE314      0.1605
     56  C          6.5740   33.7330   86.6550 C.2   314  PHE314      0.2264
     57  O          5.4380   33.3790   86.3340 O.2   314  PHE314     -0.2867
     58  CB         7.7790   35.4860   85.3690 C.3   314  PHE314      0.0534
     59  CG         7.0520   35.1680   84.0960 C.ar  314  PHE314     -0.0203
     60  CD1        5.8520   35.7960   83.7890 C.ar  314  PHE314     -0.0042
     61  CD2        7.5740   34.2500   83.1970 C.ar  314  PHE314     -0.0042
     62  CE1        5.1870   35.5150   82.6040 C.ar  314  PHE314     -0.0003
     63  CE2        6.9180   33.9630   82.0080 C.ar  314  PHE314     -0.0003
     64  CZ         5.7210   34.5970   81.7100 C.ar  314  PHE314     -0.0000
     65  N          2.7510   31.9980   86.6930 N.3   318  ILE318     -0.1245
     66  CA         2.3120   30.9710   85.7580 C.3   318  ILE318      0.1561
     67  C          1.7140   29.7970   86.5190 C.2   318  ILE318      0.2260
     68  O          0.6100   29.3500   86.2200 O.2   318  ILE318     -0.2867
     69  CB         3.4830   30.4730   84.8540 C.3   318  ILE318      0.0252
     70  CG1        3.9850   31.6180   83.9750 C.3   318  ILE318      0.0019
     71  CG2        3.0090   29.3370   83.9470 C.3   318  ILE318      0.0019
     72  CD1        5.0240   31.1960   82.9680 C.3   318  ILE318      0.0001
     73  N         -0.1640   24.4480   83.5760 N.3   324  TRP324     -0.1227
     74  CA         0.2330   23.3900   82.6510 C.3   324  TRP324      0.1737
     75  C          1.5150   23.7560   81.9260 C.2   324  TRP324      0.2595
     76  O          2.3080   22.8840   81.5810 O.2   324  TRP324     -0.2718
     77  CB        -0.8650   23.0870   81.6210 C.3   324  TRP324      0.0564
     78  CG        -1.1400   24.1930   80.6550 C.ar  324  TRP324      0.0003
     79  CD1       -2.0980   25.1620   80.7640 C.ar  324  TRP324      0.0946
     80  CD2       -0.4380   24.4580   79.4350 C.ar  324  TRP324      0.0152
     81  NE1       -2.0370   26.0130   79.6880 N.ar  324  TRP324     -0.2442
     82  CE2       -1.0270   25.6050   78.8560 C.ar  324  TRP324      0.0810
     83  CE3        0.6320   23.8390   78.7730 C.ar  324  TRP324      0.0012
     84  CZ2       -0.5800   26.1480   77.6430 C.ar  324  TRP324      0.0191
     85  CZ3        1.0770   24.3790   77.5680 C.ar  324  TRP324      0.0001
     86  CH2        0.4680   25.5240   77.0160 C.ar  324  TRP324      0.0015
     87  N          1.7210   25.0510   81.7120 N.am  325  VAL325     -0.1980
     88  CA         2.9050   25.5270   81.0120 C.3   325  VAL325      0.1595
     89  C          4.2080   25.1760   81.7280 C.2   325  VAL325      0.2287
     90  O          5.2210   24.9060   81.0810 O.2   325  VAL325     -0.2864
     91  CB         2.8590   27.0540   80.8100 C.3   325  VAL325      0.0276
     92  CG1        4.0360   27.4940   79.9650 C.3   325  VAL325      0.0022
     93  CG2        1.5520   27.4570   80.1440 C.3   325  VAL325      0.0022
@<TRIPOS>BOND
     1     8     6    1
     2     6     5    1
     3     1     2    1
     4     5     2    1
     5     5     7    1
     6     2     3    1
     7     3     9   am
     8     3     4    2
     9     9    10    1
    10    16    14    1
    11    14    13    1
    12    13    10    1
    13    13    15    1
    14    10    11    1
    15    11    12    2
    16    17    18    1
    17    47    46    1
    18    18    19    1
    19    46    45    1
    20    21    19   am
    21    21    22    1
    22    19    20    2
    23    22    23    1
    24    39    38    1
    25    39    33    1
    26    45    44    1
    27    23    24    2
    28    38    37    1
    29    44    41    1
    30    33    34    1
    31    37    34    1
    32    40    41    1
    33    40    35   am
    34    86    85   ar
    35    86    84   ar
    36    34    35    1
    37    41    42    1
    38    25    26    1
    39    35    36    2
    40    85    83   ar
    41    84    82   ar
    42    30    32    1
    43    30    29    1
    44    42    43    2
    45    26    29    1
    46    26    27    1
    47    29    31    1
    48    83    80   ar
    49    82    80   ar
    50    82    81   ar
    51    27    28    2
    52    80    78   ar
    53    81    79   ar
    54    92    91    1
    55    93    91    1
    56    53    52    1
    57    78    79   ar
    58    78    77    1
    59    91    88    1
    60    88    87    1
    61    88    89    1
    62    90    89    2
    63    52    49    1
    64    48    49    1
    65    76    75    2
    66    77    74    1
    67    64    63   ar
    68    64    62   ar
    69    87    75   am
    70    75    74    1
    71    63    61   ar
    72    49    50    1
    73    62    60   ar
    74    74    73    1
    75    50    51    2
    76    72    70    1
    77    61    59   ar
    78    60    59   ar
    79    71    69    1
    80    70    69    1
    81    59    58    1
    82    69    66    1
    83    58    55    1
    84    66    67    1
    85    66    65    1
    86    68    67    2
    87    57    56    2
    88    55    56    1
    89    55    54    1
