@<TRIPOS>MOLECULE
tmp/2z73A02.pdb
 84 81 0 0 0
SMALL
GASTEIGER

@<TRIPOS>ATOM
      1  N          1.6760   36.9140   74.6940 N.3    45  GLY45      -0.1225
      2  CA         0.4020   37.3280   75.2590 C.3    45  GLY45       0.1811
      3  C          0.4220   37.0470   76.7550 C.2    45  GLY45       0.2280
      4  O          0.0170   37.8720   77.5660 O.2    45  GLY45      -0.2866
      5  N          2.4760   39.5980   78.6670 N.3    48  ILE48      -0.1231
      6  CA         1.7150   40.8370   78.7620 C.3    48  ILE48       0.1692
      7  C          0.5450   40.6970   79.7440 C.2    48  ILE48       0.2592
      8  O          0.3090   41.5820   80.5680 O.2    48  ILE48      -0.2718
      9  CB         1.1380   41.2650   77.4070 C.3    48  ILE48       0.0266
     10  CG1        2.2700   41.5770   76.4220 C.3    48  ILE48       0.0019
     11  CG2        0.2260   42.4800   77.6030 C.3    48  ILE48       0.0020
     12  CD1        1.7740   42.0200   75.0560 C.3    48  ILE48       0.0001
     13  N         -0.1850   39.5880   79.6480 N.am   49  TYR49      -0.1976
     14  CA        -1.3250   39.3450   80.5280 C.3    49  TYR49       0.1639
     15  C         -0.8600   39.2750   81.9710 C.2    49  TYR49       0.2290
     16  O         -1.2880   40.0750   82.7990 O.2    49  TYR49      -0.2864
     17  CB        -2.0360   38.0400   80.1370 C.3    49  TYR49       0.0560
     18  CG        -3.2070   37.6580   81.0280 C.ar   49  TYR49      -0.0198
     19  CD1       -3.1200   36.5690   81.8940 C.ar   49  TYR49      -0.0009
     20  CD2       -4.3970   38.3870   81.0060 C.ar   49  TYR49      -0.0009
     21  CE1       -4.1790   36.2160   82.7090 C.ar   49  TYR49       0.0417
     22  CE2       -5.4600   38.0440   81.8230 C.ar   49  TYR49       0.0417
     23  CZ        -5.3450   36.9570   82.6710 C.ar   49  TYR49       0.1957
     24  OH        -6.3960   36.6030   83.4910 O.3    49  TYR49      -0.2866
     25  N          0.9010   42.6630   83.3940 N.3    52  THR52      -0.1203
     26  CA         0.0170   43.7970   83.6510 C.3    52  THR52       0.1994
     27  C         -1.0000   43.5060   84.7570 C.2    52  THR52       0.2617
     28  O         -1.5500   44.4320   85.3440 O.2    52  THR52      -0.2717
     29  CB        -0.7930   44.2210   82.4010 C.3    52  THR52       0.1784
     30  OG1       -1.3680   43.0670   81.7880 O.3    52  THR52      -0.2211
     31  CG2        0.0790   44.9500   81.4070 C.3    52  THR52       0.0376
     32  N         -1.2280   42.2320   85.0610 N.am   53  LYS53      -0.1979
     33  CA        -2.2200   41.8900   86.0620 C.3    53  LYS53       0.1596
     34  C         -1.7500   41.3280   87.4020 C.2    53  LYS53       0.2287
     35  O         -2.5540   41.1880   88.3260 O.2    53  LYS53      -0.2864
     36  CB        -3.2480   40.9450   85.4410 C.3    53  LYS53       0.0298
     37  CG        -4.0230   41.5970   84.3000 C.3    53  LYS53       0.0038
     38  CD        -4.7140   42.8720   84.7800 C.3    53  LYS53       0.0206
     39  CE        -5.3020   43.6600   83.6230 C.3    53  LYS53       0.1093
     40  NZ        -5.9530   44.9250   84.0790 N.3    53  LYS53      -0.1314
     41  N          4.9850   43.1630   73.6820 N.3    70  PHE70      -0.1241
     42  CA         4.0320   43.6930   72.7050 C.3    70  PHE70       0.1605
     43  C          4.7480   43.6950   71.3580 C.2    70  PHE70       0.2264
     44  O          4.1780   43.3340   70.3240 O.2    70  PHE70      -0.2867
     45  CB         3.6240   45.1290   73.0540 C.3    70  PHE70       0.0534
     46  CG         2.6470   45.7330   72.0840 C.ar   70  PHE70      -0.0203
     47  CD1        1.2940   45.7850   72.3790 C.ar   70  PHE70      -0.0042
     48  CD2        3.0760   46.2050   70.8470 C.ar   70  PHE70      -0.0042
     49  CE1        0.3820   46.2910   71.4610 C.ar   70  PHE70      -0.0003
     50  CE2        2.1650   46.7140   69.9200 C.ar   70  PHE70      -0.0003
     51  CZ         0.8210   46.7550   70.2270 C.ar   70  PHE70      -0.0000
     52  N          5.1070   40.2360   70.1940 N.3    73  PHE73      -0.1227
     53  CA         3.7900   39.7280   69.8640 C.3    73  PHE73       0.1736
     54  C          3.4330   40.1240   68.4260 C.2    73  PHE73       0.2596
     55  O          3.1340   39.2690   67.5980 O.2    73  PHE73      -0.2718
     56  CB         2.7240   40.3060   70.7990 C.3    73  PHE73       0.0547
     57  CG         1.3310   39.8600   70.4490 C.ar   73  PHE73      -0.0202
     58  CD1        0.8550   38.6320   70.8800 C.ar   73  PHE73      -0.0042
     59  CD2        0.5240   40.6370   69.6230 C.ar   73  PHE73      -0.0042
     60  CE1       -0.3950   38.1860   70.4910 C.ar   73  PHE73      -0.0003
     61  CE2       -0.7330   40.1990   69.2280 C.ar   73  PHE73      -0.0003
     62  CZ        -1.1940   38.9720   69.6610 C.ar   73  PHE73      -0.0000
     63  N          3.4750   41.4300   68.1610 N.am   74  THR74      -0.1953
     64  CA         3.1430   41.9890   66.8570 C.3    74  THR74       0.1897
     65  C          4.0360   41.4470   65.7460 C.2    74  THR74       0.2313
     66  O          3.5860   41.2530   64.6220 O.2    74  THR74      -0.2863
     67  CB         3.2580   43.5440   66.8490 C.3    74  THR74       0.1794
     68  OG1        2.7170   44.0790   68.0590 O.3    74  THR74      -0.2208
     69  CG2        2.4900   44.1350   65.6680 C.3    74  THR74       0.0378
     70  N          2.8190   37.9600   64.9950 N.3    77  LEU77      -0.1231
     71  CA         1.4970   38.0050   64.3760 C.3    77  LEU77       0.1693
     72  C          1.6000   38.3430   62.8870 C.2    77  LEU77       0.2591
     73  O          1.2310   37.5490   62.0100 O.2    77  LEU77      -0.2718
     74  CB         0.6230   39.0780   65.0350 C.3    77  LEU77       0.0284
     75  CG        -0.9100   38.8920   65.0830 C.3    77  LEU77       0.0019
     76  CD1       -1.5660   40.2640   65.0260 C.3    77  LEU77       0.0001
     77  CD2       -1.4160   38.0200   63.9390 C.3    77  LEU77       0.0001
     78  N          2.1000   39.5470   62.6310 N.am   78  VAL78      -0.1980
     79  CA         2.2350   40.0730   61.2970 C.3    78  VAL78       0.1595
     80  C          3.2000   39.3240   60.3810 C.2    78  VAL78       0.2287
     81  O          2.9460   39.1910   59.1910 O.2    78  VAL78      -0.2864
     82  CB         2.6500   41.5560   61.3470 C.3    78  VAL78       0.0276
     83  CG1        2.7950   42.1130   59.9340 C.3    78  VAL78       0.0022
     84  CG2        1.6260   42.3490   62.1170 C.3    78  VAL78       0.0022
@<TRIPOS>BOND
     1    81    80    2
     2    83    82    1
     3    80    79    1
     4    79    82    1
     5    79    78    1
     6    82    84    1
     7    73    72    2
     8    78    72   am
     9    72    71    1
    10    77    75    1
    11    71    70    1
    12    71    74    1
    13    66    65    2
    14    76    75    1
    15    74    75    1
    16    69    67    1
    17    65    64    1
    18    67    64    1
    19    67    68    1
    20    64    63    1
    21    55    54    2
    22    63    54   am
    23    54    53    1
    24    61    59   ar
    25    61    62   ar
    26    59    57   ar
    27    62    60   ar
    28    53    52    1
    29    53    56    1
    30    50    51   ar
    31    50    48   ar
    32    51    49   ar
    33    44    43    2
    34    57    56    1
    35    57    58   ar
    36    60    58   ar
    37    48    46   ar
    38    43    42    1
    39    49    47   ar
    40    46    47   ar
    41    46    45    1
    42    42    45    1
    43    42    41    1
    44     1     2    1
    45    12    10    1
    46     2     3    1
    47    10     9    1
    48     3     4    2
    49     9    11    1
    50     9     6    1
    51     5     6    1
    52     6     7    1
    53    13     7   am
    54    13    14    1
    55     7     8    2
    56    17    14    1
    57    17    18    1
    58    14    15    1
    59    20    18   ar
    60    20    22   ar
    61    18    19   ar
    62    31    29    1
    63    30    29    1
    64    22    23   ar
    65    19    21   ar
    66    15    16    2
    67    29    26    1
    68    23    21   ar
    69    23    24    1
    70    25    26    1
    71    39    40    1
    72    39    38    1
    73    26    27    1
    74    37    38    1
    75    37    36    1
    76    27    32   am
    77    27    28    2
    78    32    33    1
    79    36    33    1
    80    33    34    1
    81    34    35    2
