@<TRIPOS>MOLECULE
tmp/2z76A00.pdb
 220 207 0 0 0
SMALL
GASTEIGER

@<TRIPOS>ATOM
      1  N          5.2010   11.1790    6.5860 N.3    11  SER11      -0.1217
      2  CA         4.8320   12.6070    6.4350 C.3    11  SER11       0.1889
      3  C          6.0560   13.5180    6.7000 C.2    11  SER11       0.2288
      4  O          6.3540   14.4170    5.8980 O.2    11  SER11      -0.2866
      5  CB         3.6930   12.9780    7.4030 C.3    11  SER11       0.2089
      6  OG         3.2570   14.3210    7.1910 O.3    11  SER11      -0.2183
      7  N          7.7600   16.0270    3.8980 N.3    15  VAL15      -0.1245
      8  CA         7.7460   17.5060    4.0070 C.3    15  VAL15       0.1561
      9  C          9.1690   18.0470    4.0580 C.2    15  VAL15       0.2260
     10  O          9.4760   19.0950    3.4680 O.2    15  VAL15      -0.2867
     11  CB         6.9140   18.0750    5.2060 C.3    15  VAL15       0.0252
     12  CG1        5.4450   17.7200    5.0150 C.3    15  VAL15       0.0019
     13  CG2        7.4350   17.5920    6.5050 C.3    15  VAL15       0.0019
     14  N          4.0190   13.5230   -0.4050 N.3    23  TRP23      -0.1241
     15  CA         3.2680   13.9090    0.7900 C.3    23  TRP23       0.1605
     16  C          1.7710   13.6650    0.5470 C.2    23  TRP23       0.2264
     17  O          1.0890   13.0580    1.3700 O.2    23  TRP23      -0.2867
     18  CB         3.5200   15.3840    1.1260 C.3    23  TRP23       0.0550
     19  CG         3.1240   15.7750    2.5580 C.ar   23  TRP23       0.0003
     20  CD1        3.3050   15.0460    3.6890 C.ar   23  TRP23       0.0946
     21  CD2        2.4750   16.9800    2.9530 C.ar   23  TRP23       0.0152
     22  NE1        2.7850   15.7120    4.7750 N.ar   23  TRP23      -0.2442
     23  CE2        2.3000   16.9210    4.3560 C.ar   23  TRP23       0.0810
     24  CE3        2.0120   18.1040    2.2560 C.ar   23  TRP23       0.0012
     25  CZ2        1.6780   17.9590    5.0970 C.ar   23  TRP23       0.0191
     26  CZ3        1.4100   19.1430    3.0020 C.ar   23  TRP23       0.0001
     27  CH2        1.2520   19.0490    4.3930 C.ar   23  TRP23       0.0015
     28  N         -6.2120   18.6790    7.5280 N.3    33  ILE33      -0.1245
     29  CA        -5.0050   19.0480    8.3030 C.3    33  ILE33       0.1561
     30  C         -5.3380   20.3120    9.0860 C.2    33  ILE33       0.2260
     31  O         -5.6610   21.3650    8.4960 O.2    33  ILE33      -0.2867
     32  CB        -3.7730   19.3080    7.3890 C.3    33  ILE33       0.0252
     33  CG1       -3.2970   17.9970    6.7610 C.3    33  ILE33       0.0019
     34  CG2       -2.5670   19.8900    8.2210 C.3    33  ILE33       0.0019
     35  CD1       -2.1300   18.1250    5.7850 C.3    33  ILE33       0.0001
     36  N         -3.3870   22.4880   11.3230 N.3    35  ASP35      -0.1239
     37  CA        -2.0510   22.7970   11.8450 C.3    35  ASP35       0.1674
     38  C         -1.9550   24.2920   12.0270 C.2    35  ASP35       0.2266
     39  O         -1.5440   25.0030   11.1090 O.2    35  ASP35      -0.2867
     40  CB        -1.0070   22.3340   10.8230 C.3    35  ASP35       0.1410
     41  CG         0.4190   22.6450   11.2510 C.2    35  ASP35       0.3668
     42  OD1        0.7010   22.4860   12.4450 O.co2  35  ASP35      -0.2456
     43  OD2        1.2180   23.0680   10.3660 O.co2  35  ASP35      -0.2456
     44  N         -2.3230   31.4310   11.3570 N.3    41  VAL41      -0.1231
     45  CA        -1.7040   31.7580   10.0670 C.3    41  VAL41       0.1692
     46  C         -1.8380   30.5930    9.0620 C.2    41  VAL41       0.2592
     47  O         -2.1070   30.7940    7.8790 O.2    41  VAL41      -0.2718
     48  CB        -0.2250   32.1140   10.2820 C.3    41  VAL41       0.0266
     49  CG1        0.4990   32.4540    8.9500 C.3    41  VAL41       0.0020
     50  CG2       -0.1190   33.2610   11.2830 C.3    41  VAL41       0.0020
     51  N         -1.6500   29.3820    9.5710 N.am   42  THR42      -0.1953
     52  CA        -1.6820   28.1660    8.7710 C.3    42  THR42       0.1897
     53  C         -3.0530   27.4430    8.8200 C.2    42  THR42       0.2313
     54  O         -3.1880   26.3360    8.2680 O.2    42  THR42      -0.2863
     55  CB        -0.5400   27.2170    9.2340 C.3    42  THR42       0.1794
     56  OG1       -0.4520   27.2620   10.6680 O.3    42  THR42      -0.2208
     57  CG2        0.7990   27.6570    8.6610 C.3    42  THR42       0.0378
     58  N         -1.4630   24.4200    0.3600 N.3    58  PHE58      -0.1241
     59  CA        -0.8660   24.7030    1.6730 C.3    58  PHE58       0.1605
     60  C          0.6290   24.3990    1.5840 C.2    58  PHE58       0.2264
     61  O          1.4840   25.1840    2.0490 O.2    58  PHE58      -0.2867
     62  CB        -1.5230   23.8040    2.7380 C.3    58  PHE58       0.0534
     63  CG        -0.8550   23.8380    4.0970 C.ar   58  PHE58      -0.0203
     64  CD1       -1.2710   24.7440    5.0740 C.ar   58  PHE58      -0.0042
     65  CD2        0.1510   22.9350    4.4090 C.ar   58  PHE58      -0.0042
     66  CE1       -0.6570   24.7760    6.3510 C.ar   58  PHE58      -0.0003
     67  CE2        0.7790   22.9410    5.6560 C.ar   58  PHE58      -0.0003
     68  CZ         0.3770   23.8640    6.6420 C.ar   58  PHE58      -0.0000
     69  N          3.4020   27.2060    2.4680 N.3    62  HIS62      -0.1226
     70  CA         4.1120   27.1590    3.7410 C.3    62  HIS62       0.1752
     71  C          5.2810   26.1910    3.7960 C.2    62  HIS62       0.2595
     72  O          6.0010   26.1580    4.8190 O.2    62  HIS62      -0.2718
     73  CB         3.1220   26.7910    4.8680 C.3    62  HIS62       0.0759
     74  CG         2.0180   27.7830    5.0160 C.ar   62  HIS62       0.0818
     75  ND1        2.2190   29.0420    5.5470 N.ar   62  HIS62      -0.2268
     76  CD2        0.7290   27.7420    4.6110 C.ar   62  HIS62       0.1154
     77  CE1        1.0790   29.7140    5.5110 C.ar   62  HIS62       0.1986
     78  NE2        0.1630   28.9470    4.9470 N.ar   62  HIS62      -0.2212
     79  N          5.4270   25.3440    2.7730 N.am   63  ILE63      -0.1980
     80  CA         6.4800   24.3160    2.8390 C.3    63  ILE63       0.1595
     81  C          7.4770   24.4450    1.6950 C.2    63  ILE63       0.2287
     82  O          8.6930   24.2710    1.9270 O.2    63  ILE63      -0.2864
     83  CB         5.9060   22.8450    2.8880 C.3    63  ILE63       0.0276
     84  CG1        5.0240   22.6710    4.1410 C.3    63  ILE63       0.0022
     85  CG2        7.0320   21.7920    2.8700 C.3    63  ILE63       0.0022
     86  CD1        4.3900   21.2870    4.2230 C.3    63  ILE63       0.0001
     87  N         10.3680   26.8270    2.4550 N.3    66  ASN66      -0.1240
     88  CA        10.6210   26.7470    3.8820 C.3    66  ASN66       0.1653
     89  C         11.7210   25.7230    4.0910 C.2    66  ASN66       0.2266
     90  O         11.5720   24.5690    3.6820 O.2    66  ASN66      -0.2867
     91  CB         9.3100   26.2720    4.6080 C.3    66  ASN66       0.1155
     92  CG         9.4350   26.2290    6.1190 C.2    66  ASN66       0.2627
     93  OD1       10.5290   26.3360    6.6820 O.2    66  ASN66      -0.2716
     94  ND2        8.2810   26.0830    6.8100 N.am   66  ASN66      -0.0877
     95  N         12.4060   23.5350    6.3350 N.3    68  LEU68      -0.1245
     96  CA        11.6270   22.9980    7.4410 C.3    68  LEU68       0.1561
     97  C         12.2910   21.7410    7.9570 C.2    68  LEU68       0.2260
     98  O         12.5870   20.8210    7.1910 O.2    68  LEU68      -0.2867
     99  CB        10.2230   22.6470    6.9360 C.3    68  LEU68       0.0270
    100  CG         9.3000   21.8480    7.8600 C.3    68  LEU68       0.0019
    101  CD1        8.8850   22.7000    9.0680 C.3    68  LEU68       0.0001
    102  CD2        8.1070   21.4000    7.0220 C.3    68  LEU68       0.0001
    103  N         11.6000   18.6490   11.0310 N.3    70  VAL70      -0.1245
    104  CA        10.7090   18.0460   12.0060 C.3    70  VAL70       0.1561
    105  C         11.5420   17.1680   12.9270 C.2    70  VAL70       0.2260
    106  O         12.2680   16.3120   12.4620 O.2    70  VAL70      -0.2867
    107  CB         9.6270   17.2120   11.3050 C.3    70  VAL70       0.0252
    108  CG1        8.7000   16.5340   12.3390 C.3    70  VAL70       0.0019
    109  CG2        8.8210   18.0970   10.3030 C.3    70  VAL70       0.0019
    110  N          6.3590   16.9680   18.7870 N.3    88  LEU88      -0.1245
    111  CA         7.2240   17.3520   17.6740 C.3    88  LEU88       0.1561
    112  C          7.7200   18.7640   17.8720 C.2    88  LEU88       0.2260
    113  O          7.0080   19.6080   18.4260 O.2    88  LEU88      -0.2867
    114  CB         6.4340   17.3400   16.3720 C.3    88  LEU88       0.0270
    115  CG         5.8000   16.0180   15.9210 C.3    88  LEU88       0.0019
    116  CD1        5.2010   16.2480   14.5380 C.3    88  LEU88       0.0001
    117  CD2        6.7870   14.8470   15.8910 C.3    88  LEU88       0.0001
    118  N          8.8950   21.6580   15.2590 N.3    90  LEU90      -0.1245
    119  CA         8.9210   22.0690   13.8830 C.3    90  LEU90       0.1561
    120  C          9.7270   23.3650   13.8030 C.2    90  LEU90       0.2260
    121  O          9.3580   24.3760   14.4140 O.2    90  LEU90      -0.2867
    122  CB         7.4930   22.3470   13.4270 C.3    90  LEU90       0.0270
    123  CG         6.5710   21.2230   12.9010 C.3    90  LEU90       0.0019
    124  CD1        6.8520   19.8850   13.4700 C.3    90  LEU90       0.0001
    125  CD2        5.1050   21.6460   13.1120 C.3    90  LEU90       0.0001
    126  N         11.1700   26.1960   11.2050 N.3    92  SER92      -0.1217
    127  CA        11.0500   26.7670    9.8660 C.3    92  SER92       0.1889
    128  C         12.0530   27.9120    9.6600 C.2    92  SER92       0.2288
    129  O         12.4160   28.6130   10.6130 O.2    92  SER92      -0.2866
    130  CB         9.6340   27.2980    9.6370 C.3    92  SER92       0.2089
    131  OG         8.6620   26.2450    9.7480 O.3    92  SER92      -0.2183
    132  N         12.5290   30.9440    6.4690 N.3    94  PHE94      -0.1241
    133  CA        11.8380   31.4510    5.3010 C.3    94  PHE94       0.1605
    134  C         12.2140   32.9030    4.9940 C.2    94  PHE94       0.2264
    135  O         12.6970   33.6220    5.8660 O.2    94  PHE94      -0.2867
    136  CB        10.3130   31.3100    5.5040 C.3    94  PHE94       0.0534
    137  CG         9.8560   31.6940    6.9010 C.ar   94  PHE94      -0.0203
    138  CD1        9.9380   30.7850    7.9670 C.ar   94  PHE94      -0.0042
    139  CD2        9.3960   32.9880    7.1590 C.ar   94  PHE94      -0.0042
    140  CE1        9.5350   31.1540    9.2670 C.ar   94  PHE94      -0.0003
    141  CE2        8.9930   33.3660    8.4630 C.ar   94  PHE94      -0.0003
    142  CZ         9.0730   32.4490    9.5070 C.ar   94  PHE94      -0.0000
    143  N         11.2620   30.3170   12.7060 N.3   100  SER100     -0.1217
    144  CA        10.2310   30.1200   13.6890 C.3   100  SER100      0.1889
    145  C         10.3730   28.6910   14.1580 C.2   100  SER100      0.2288
    146  O         10.9460   27.8120   13.4630 O.2   100  SER100     -0.2866
    147  CB         8.8470   30.3470   13.1100 C.3   100  SER100      0.2089
    148  OG         8.6100   29.3540   12.1300 O.3   100  SER100     -0.2183
    149  N          1.0930   16.6300   18.2160 N.3   106  PHE106     -0.1241
    150  CA         0.4540   16.4350   16.9110 C.3   106  PHE106      0.1605
    151  C         -0.1510   15.0460   16.8820 C.2   106  PHE106      0.2264
    152  O          0.5550   14.0310   17.1530 O.2   106  PHE106     -0.2867
    153  CB         1.4690   16.5730   15.7560 C.3   106  PHE106      0.0534
    154  CG         2.0050   17.9590   15.6140 C.ar  106  PHE106     -0.0203
    155  CD1        1.5380   18.7910   14.6330 C.ar  106  PHE106     -0.0042
    156  CD2        2.9130   18.4530   16.5350 C.ar  106  PHE106     -0.0042
    157  CE1        2.0450   20.1150   14.5480 C.ar  106  PHE106     -0.0003
    158  CE2        3.4040   19.7460   16.4500 C.ar  106  PHE106     -0.0003
    159  CZ         2.9630   20.5600   15.4690 C.ar  106  PHE106     -0.0000
    160  N         -2.3470   12.0750   14.6900 N.3   108  TYR108     -0.1241
    161  CA        -2.5600   11.5920   13.3740 C.3   108  TYR108      0.1605
    162  C         -3.5990   10.4630   13.4200 C.2   108  TYR108      0.2264
    163  O         -3.5490    9.5870   14.2940 O.2   108  TYR108     -0.2867
    164  CB        -1.2680   10.9900   12.7710 C.3   108  TYR108      0.0534
    165  CG        -0.1370   11.9550   12.5310 C.ar  108  TYR108     -0.0201
    166  CD1        0.2300   12.3160   11.2340 C.ar  108  TYR108     -0.0009
    167  CD2        0.5940   12.4630   13.6130 C.ar  108  TYR108     -0.0009
    168  CE1        1.2960   13.2160   11.0140 C.ar  108  TYR108      0.0417
    169  CE2        1.6450   13.3330   13.4170 C.ar  108  TYR108      0.0417
    170  CZ         1.9870   13.6970   12.1220 C.ar  108  TYR108      0.1957
    171  OH         3.0390   14.5430   11.9210 O.3   108  TYR108     -0.2866
    172  N         -4.5520   15.2000   10.6030 N.3   119  MET119     -0.1245
    173  CA        -3.3220   15.6020   11.2910 C.3   119  MET119      0.1570
    174  C         -3.6860   16.8630   12.0400 C.2   119  MET119      0.2261
    175  O         -4.2070   17.8220   11.4310 O.2   119  MET119     -0.2867
    176  CB        -2.2200   15.9420   10.2870 C.3   119  MET119      0.0387
    177  CG        -0.8960   16.3200   10.9630 C.3   119  MET119      0.0595
    178  SD         0.3080   16.9730    9.7610 S.3   119  MET119     -0.1393
    179  CE         0.1280   15.8740    8.3490 C.3   119  MET119      0.0692
    180  N         -0.8360   23.7980   19.1820 N.3   123  TRP123     -0.1241
    181  CA         0.1290   24.8900   19.3850 C.3   123  TRP123      0.1605
    182  C         -0.5700   26.1740   18.9700 C.2   123  TRP123      0.2264
    183  O         -1.6100   26.1360   18.3100 O.2   123  TRP123     -0.2867
    184  CB         1.4390   24.6740   18.5690 C.3   123  TRP123      0.0550
    185  CG         1.2760   24.6110   17.0480 C.ar  123  TRP123      0.0003
    186  CD1        1.0580   23.4760   16.2860 C.ar  123  TRP123      0.0946
    187  CD2        1.3310   25.7120   16.1180 C.ar  123  TRP123      0.0152
    188  NE1        0.9500   23.8160   14.9490 N.ar  123  TRP123     -0.2442
    189  CE2        1.1240   25.1750   14.8190 C.ar  123  TRP123      0.0810
    190  CE3        1.5190   27.1060   16.2590 C.ar  123  TRP123      0.0012
    191  CZ2        1.1070   25.9830   13.6560 C.ar  123  TRP123      0.0191
    192  CZ3        1.4960   27.9130   15.1140 C.ar  123  TRP123      0.0001
    193  CH2        1.2940   27.3450   13.8170 C.ar  123  TRP123      0.0015
    194  N          0.3650   30.7290   18.1330 N.3   125  LEU125     -0.1245
    195  CA         1.4550   31.6720   17.8020 C.3   125  LEU125      0.1561
    196  C          2.1570   32.1430   19.0600 C.2   125  LEU125      0.2260
    197  O          3.3540   32.4730   19.0330 O.2   125  LEU125     -0.2867
    198  CB         0.9450   32.8670   16.9910 C.3   125  LEU125      0.0270
    199  CG         0.5640   32.5380   15.5440 C.3   125  LEU125      0.0019
    200  CD1       -0.3050   33.6510   14.9950 C.3   125  LEU125      0.0001
    201  CD2        1.8310   32.3440   14.7040 C.3   125  LEU125      0.0001
    202  N          5.2400   29.9840   20.0200 N.3   128  MET128     -0.1245
    203  CA         6.2900   29.9910   18.9990 C.3   128  MET128      0.1570
    204  C          7.5240   30.7640   19.4530 C.2   128  MET128      0.2261
    205  O          7.4000   31.8040   20.1160 O.2   128  MET128     -0.2867
    206  CB         5.7210   30.6250   17.7230 C.3   128  MET128      0.0387
    207  CG         6.4900   30.3340   16.4290 C.3   128  MET128      0.0595
    208  SD         5.5560   30.8820   14.9850 S.3   128  MET128     -0.1393
    209  CE         4.6950   29.3750   14.5360 C.3   128  MET128      0.0692
    210  N         11.5710   32.2200   17.9350 N.3   130  PHE130     -0.1241
    211  CA        12.0790   32.7870   16.6940 C.3   130  PHE130      0.1605
    212  C         13.5860   32.9430   16.8340 C.2   130  PHE130      0.2264
    213  O         14.1090   32.9700   17.9580 O.2   130  PHE130     -0.2867
    214  CB        11.4450   34.1640   16.4380 C.3   130  PHE130      0.0534
    215  CG         9.9400   34.1650   16.5470 C.ar  130  PHE130     -0.0203
    216  CD1        9.1560   33.7110   15.4790 C.ar  130  PHE130     -0.0042
    217  CD2        9.3220   34.5800   17.7190 C.ar  130  PHE130     -0.0042
    218  CE1        7.7720   33.6930   15.5930 C.ar  130  PHE130     -0.0003
    219  CE2        7.9110   34.5570   17.8330 C.ar  130  PHE130     -0.0003
    220  CZ         7.1670   34.1190   16.7690 C.ar  130  PHE130     -0.0000
@<TRIPOS>BOND
     1    14    15    1
     2    58    59    1
     3    16    15    1
     4    16    17    2
     5    15    18    1
     6    18    19    1
     7    60    59    1
     8    60    61    2
     9    59    62    1
    10    81    82    2
    11    81    80    1
    12    24    21   ar
    13    24    26   ar
    14    87    88    1
    15    69    70    1
    16    19    21   ar
    17    19    20   ar
    18    62    63    1
    19    79    80    1
    20    79    71   am
    21    80    83    1
    22    85    83    1
    23    83    84    1
    24    21    23   ar
    25    26    27   ar
    26    10     9    2
    27    90    89    2
    28    20    22   ar
    29    70    71    1
    30    70    73    1
    31    71    72    2
    32    88    89    1
    33    88    91    1
    34     7     8    1
    35     8     9    1
    36     8    11    1
    37    63    65   ar
    38    63    64   ar
    39    84    86    1
    40    23    22   ar
    41    23    25   ar
    42    27    25   ar
    43    65    67   ar
    44    91    92    1
    45    76    78   ar
    46    76    74   ar
    47    73    74    1
    48    78    77   ar
    49   134   133    1
    50   134   135    2
    51    12    11    1
    52    74    75   ar
    53    64    66   ar
    54    11    13    1
    55   133   136    1
    56   133   132    1
    57   136   137    1
    58    77    75   ar
    59    67    68   ar
    60    35    33    1
    61     4     3    2
    62    92    93    2
    63    92    94   am
    64    95    96    1
    65    66    68   ar
    66     2     1    1
    67     2     3    1
    68     2     5    1
    69    33    32    1
    70   137   139   ar
    71   137   138   ar
    72    99    96    1
    73    99   100    1
    74   102   100    1
    75   139   141   ar
    76    98    97    2
    77     6     5    1
    78    32    34    1
    79    32    29    1
    80    96    97    1
    81    28    29    1
    82   100   101    1
    83    47    46    2
    84   138   140   ar
    85    54    53    2
    86    29    30    1
    87   179   178    1
    88   141   142   ar
    89    31    30    2
    90    57    55    1
    91    52    53    1
    92    52    55    1
    93    52    51    1
    94    49    48    1
    95    46    51   am
    96    46    45    1
    97    55    56    1
    98   140   142   ar
    99   130   131    1
   100   130   127    1
   101   128   127    1
   102   128   129    2
   103   178   177    1
   104   127   126    1
   105    45    48    1
   106    45    44    1
   107    48    50    1
   108   176   177    1
   109   176   173    1
   110   109   107    1
   111    43    41   ar
   112   172   173    1
   113    40    41    1
   114    40    37    1
   115   168   166   ar
   116   168   170   ar
   117   103   104    1
   118    39    38    2
   119   166   165   ar
   120    41    42   ar
   121   173   174    1
   122   107   104    1
   123   107   108    1
   124    36    37    1
   125   175   174    2
   126    37    38    1
   127   171   170    1
   128   104   105    1
   129   170   169   ar
   130   148   147    1
   131   106   105    2
   132   165   164    1
   133   165   167   ar
   134   143   144    1
   135   164   161    1
   136   123   125    1
   137   123   122    1
   138   123   124    1
   139   147   144    1
   140   161   162    1
   141   161   160    1
   142   169   167   ar
   143   162   163    2
   144   122   119    1
   145   146   145    2
   146   191   193   ar
   147   191   189   ar
   148   144   145    1
   149   120   119    1
   150   120   121    2
   151   193   192   ar
   152   119   118    1
   153   209   208    1
   154   116   115    1
   155   157   155   ar
   156   157   159   ar
   157   155   154   ar
   158   201   199    1
   159   189   188   ar
   160   189   187   ar
   161   188   186   ar
   162   208   207    1
   163   200   199    1
   164   192   190   ar
   165   159   158   ar
   166   216   218   ar
   167   216   215   ar
   168   199   198    1
   169   218   220   ar
   170   154   153    1
   171   154   156   ar
   172   153   150    1
   173   117   115    1
   174   115   114    1
   175   187   190   ar
   176   187   185   ar
   177   186   185   ar
   178   114   111    1
   179   207   206    1
   180   214   215    1
   181   214   211    1
   182   158   156   ar
   183   215   217   ar
   184   211   212    1
   185   211   210    1
   186   220   219   ar
   187   212   213    2
   188   151   150    1
   189   151   152    2
   190   150   149    1
   191   198   195    1
   192   185   184    1
   193   111   112    1
   194   111   110    1
   195   217   219   ar
   196   206   203    1
   197   195   194    1
   198   195   196    1
   199   112   113    2
   200   183   182    2
   201   184   181    1
   202   182   181    1
   203   203   204    1
   204   203   202    1
   205   197   196    2
   206   180   181    1
   207   204   205    2
