@<TRIPOS>MOLECULE
tmp/2z77B00.pdb
 141 131 0 0 0
SMALL
GASTEIGER

@<TRIPOS>ATOM
      1  N         24.2730   -6.3330   26.7380 N.3    36  ASP36      -0.1239
      2  CA        24.5390   -4.9030   26.6620 C.3    36  ASP36       0.1674
      3  C         24.8240   -4.4740   25.1920 C.2    36  ASP36       0.2266
      4  O         25.9760   -4.3610   24.7750 O.2    36  ASP36      -0.2867
      5  CB        25.7180   -4.5610   27.6080 C.3    36  ASP36       0.1410
      6  CG        26.0020   -3.0450   27.6750 C.2    36  ASP36       0.3668
      7  OD1       25.0600   -2.2560   27.4270 O.co2  36  ASP36      -0.2456
      8  OD2       27.1770   -2.6640   27.9540 O.co2  36  ASP36      -0.2456
      9  N         26.7570   -4.1040   18.1130 N.3    42  VAL42      -0.1231
     10  CA        28.2370   -4.2500   18.0930 C.3    42  VAL42       0.1692
     11  C         28.7390   -4.9760   19.2990 C.2    42  VAL42       0.2592
     12  O         29.6900   -5.7730   19.2090 O.2    42  VAL42      -0.2718
     13  CB        29.0560   -2.9070   18.0710 C.3    42  VAL42       0.0266
     14  CG1       29.7350   -2.7060   16.7640 C.3    42  VAL42       0.0020
     15  CG2       28.2760   -1.7290   18.5780 C.3    42  VAL42       0.0020
     16  N         28.1180   -4.6860   20.4490 N.am   43  THR43      -0.1953
     17  CA        28.5420   -5.2970   21.7240 C.3    43  THR43       0.1897
     18  C         27.7860   -6.5940   22.1030 C.2    43  THR43       0.2313
     19  O         28.0410   -7.2090   23.1280 O.2    43  THR43      -0.2863
     20  CB        28.4480   -4.2660   22.8390 C.3    43  THR43       0.1794
     21  OG1       27.1730   -3.5940   22.7530 O.3    43  THR43      -0.2208
     22  CG2       29.5220   -3.1980   22.6320 C.3    43  THR43       0.0378
     23  N         37.5350   -4.9830   26.4560 N.3    62  THR62      -0.1203
     24  CA        37.1800   -4.2580   25.2420 C.3    62  THR62       0.1994
     25  C         36.5070   -2.8940   25.4510 C.2    62  THR62       0.2617
     26  O         36.6400   -2.0020   24.5970 O.2    62  THR62      -0.2717
     27  CB        36.3060   -5.0990   24.2750 C.3    62  THR62       0.1784
     28  OG1       35.0120   -5.3030   24.8570 O.3    62  THR62      -0.2211
     29  CG2       36.9360   -6.3820   23.9460 C.3    62  THR62       0.0376
     30  N         35.7660   -2.7320   26.5520 N.am   63  HIS63      -0.1975
     31  CA        35.0730   -1.4860   26.8010 C.3    63  HIS63       0.1656
     32  C         35.9440   -0.3980   27.3920 C.2    63  HIS63       0.2291
     33  O         35.6940    0.7820   27.1550 O.2    63  HIS63      -0.2864
     34  CB        33.8260   -1.7110   27.6400 C.3    63  HIS63       0.0771
     35  CG        32.7040   -2.3440   26.8660 C.ar   63  HIS63       0.0820
     36  ND1       32.8770   -3.4860   26.1010 N.ar   63  HIS63      -0.2267
     37  CD2       31.4010   -1.9930   26.7270 C.ar   63  HIS63       0.1154
     38  CE1       31.7320   -3.7940   25.5080 C.ar   63  HIS63       0.1986
     39  NE2       30.8210   -2.9080   25.8760 N.ar   63  HIS63      -0.2212
     40  N         40.1120    3.9950   26.4740 N.3    67  ASN67      -0.1240
     41  CA        38.8350    4.6590   26.7040 C.3    67  ASN67       0.1653
     42  C         38.8250    5.3740   28.0450 C.2    67  ASN67       0.2266
     43  O         39.3290    4.8420   29.0210 O.2    67  ASN67      -0.2867
     44  CB        37.6910    3.6160   26.6490 C.3    67  ASN67       0.1155
     45  CG        36.3230    4.2520   26.3910 C.2    67  ASN67       0.2627
     46  OD1       36.1900    5.4740   26.2610 O.2    67  ASN67      -0.2716
     47  ND2       35.3080    3.4290   26.3200 N.am   67  ASN67      -0.0877
     48  N         35.9430    5.8030   29.9980 N.3    69  LEU69      -0.1245
     49  CA        34.5240    5.4420   30.2380 C.3    69  LEU69       0.1561
     50  C         34.0110    5.9870   31.5840 C.2    69  LEU69       0.2260
     51  O         34.5510    5.6580   32.6400 O.2    69  LEU69      -0.2867
     52  CB        34.3180    3.9020   30.1400 C.3    69  LEU69       0.0270
     53  CG        32.8890    3.3140   30.0820 C.3    69  LEU69       0.0019
     54  CD1       31.9990    4.0710   29.1180 C.3    69  LEU69       0.0001
     55  CD2       32.8800    1.8140   29.7140 C.3    69  LEU69       0.0001
     56  N         30.3750    6.1030   33.8560 N.3    71  VAL71      -0.1245
     57  CA        29.0680    5.4340   33.9680 C.3    71  VAL71       0.1561
     58  C         28.3690    6.2510   35.0170 C.2    71  VAL71       0.2260
     59  O         28.7430    6.1780   36.1900 O.2    71  VAL71      -0.2867
     60  CB        29.1590    3.9830   34.4640 C.3    71  VAL71       0.0252
     61  CG1       27.7650    3.3040   34.4500 C.3    71  VAL71       0.0019
     62  CG2       30.1230    3.1950   33.6420 C.3    71  VAL71       0.0019
     63  N         26.2480    6.2170   29.6390 N.3    91  LEU91      -0.1245
     64  CA        27.5310    5.6300   29.3510 C.3    91  LEU91       0.1561
     65  C         28.2680    6.5960   28.4240 C.2    91  LEU91       0.2260
     66  O         27.8610    6.7670   27.2920 O.2    91  LEU91      -0.2867
     67  CB        27.3380    4.3110   28.6050 C.3    91  LEU91       0.0270
     68  CG        26.7460    3.0990   29.3320 C.3    91  LEU91       0.0019
     69  CD1       25.5280    3.5080   30.0120 C.3    91  LEU91       0.0001
     70  CD2       26.3950    1.9790   28.3280 C.3    91  LEU91       0.0001
     71  N         31.8350    7.5610   26.5500 N.3    93  SER93      -0.1217
     72  CA        33.1870    7.2070   26.1250 C.3    93  SER93       0.1889
     73  C         33.9700    8.3640   25.4780 C.2    93  SER93       0.2288
     74  O         33.4780    9.0790   24.5970 O.2    93  SER93      -0.2866
     75  CB        33.1530    6.0340   25.1760 C.3    93  SER93       0.2089
     76  OG        32.5550    4.9430   25.8110 O.3    93  SER93      -0.2183
     77  N         37.5490    8.1820   23.7620 N.3    95  PHE95      -0.1241
     78  CA        38.6070    7.2830   23.3750 C.3    95  PHE95       0.1605
     79  C         39.9080    8.0460   23.1720 C.2    95  PHE95       0.2264
     80  O         39.9280    9.2890   23.2690 O.2    95  PHE95      -0.2867
     81  CB        38.2030    6.5420   22.1050 C.3    95  PHE95       0.0534
     82  CG        36.8690    5.8660   22.2140 C.ar   95  PHE95      -0.0203
     83  CD1       36.7460    4.6240   22.8470 C.ar   95  PHE95      -0.0042
     84  CD2       35.7210    6.4790   21.7040 C.ar   95  PHE95      -0.0042
     85  CE1       35.4890    3.9940   22.9630 C.ar   95  PHE95      -0.0003
     86  CE2       34.4580    5.8660   21.8080 C.ar   95  PHE95      -0.0003
     87  CZ        34.3430    4.6150   22.4310 C.ar   95  PHE95      -0.0000
     88  N         31.6420    9.2760   22.2970 N.3   101  SER101     -0.1217
     89  CA        30.5770    8.3190   22.0220 C.3   101  SER101      0.1889
     90  C         29.7010    8.2010   23.2560 C.2   101  SER101      0.2288
     91  O         30.2280    8.0220   24.3410 O.2   101  SER101     -0.2866
     92  CB        31.2030    6.9740   21.7020 C.3   101  SER101      0.2089
     93  OG        30.2230    6.0460   21.3370 O.3   101  SER101     -0.2183
     94  N         25.6690    6.9110   25.0990 N.3   103  VAL103     -0.1245
     95  CA        24.3050    6.3630   25.1080 C.3   103  VAL103      0.1561
     96  C         23.6760    6.4530   26.5020 C.2   103  VAL103      0.2260
     97  O         24.3620    6.3380   27.5580 O.2   103  VAL103     -0.2867
     98  CB        24.2470    4.9500   24.5080 C.3   103  VAL103      0.0252
     99  CG1       24.9300    3.9650   25.3920 C.3   103  VAL103      0.0019
    100  CG2       22.7650    4.5110   24.2190 C.3   103  VAL103      0.0019
    101  N         18.9840   -0.2490   24.8750 N.3   124  TRP124     -0.1241
    102  CA        19.5030    0.7750   23.9560 C.3   124  TRP124      0.1605
    103  C         19.8150    0.1830   22.5930 C.2   124  TRP124      0.2264
    104  O         19.9060   -1.0400   22.4070 O.2   124  TRP124     -0.2867
    105  CB        20.7020    1.5640   24.5760 C.3   124  TRP124      0.0550
    106  CG        21.9400    0.7460   24.8440 C.ar  124  TRP124      0.0003
    107  CD1       22.2670    0.0910   26.0210 C.ar  124  TRP124      0.0946
    108  CD2       23.0260    0.5000   23.9400 C.ar  124  TRP124      0.0152
    109  NE1       23.4720   -0.5530   25.8820 N.ar  124  TRP124     -0.2442
    110  CE2       23.9640   -0.3120   24.6240 C.ar  124  TRP124      0.0810
    111  CE3       23.3070    0.9100   22.6110 C.ar  124  TRP124      0.0012
    112  CZ2       25.1630   -0.7420   24.0230 C.ar  124  TRP124      0.0191
    113  CZ3       24.4520    0.4640   22.0000 C.ar  124  TRP124      0.0001
    114  CH2       25.3820   -0.3660   22.7020 C.ar  124  TRP124      0.0015
    115  N         22.0180    1.3500   18.5850 N.3   126  LEU126     -0.1245
    116  CA        22.9550    2.2860   17.9200 C.3   126  LEU126      0.1561
    117  C         22.2870    3.5560   17.4140 C.2   126  LEU126      0.2260
    118  O         22.9210    4.6130   17.4030 O.2   126  LEU126     -0.2867
    119  CB        23.7270    1.5650   16.8090 C.3   126  LEU126      0.0270
    120  CG        24.7170    0.5240   17.3310 C.3   126  LEU126      0.0019
    121  CD1       25.0830   -0.5580   16.2920 C.3   126  LEU126      0.0001
    122  CD2       25.9570    1.2120   17.8410 C.3   126  LEU126      0.0001
    123  N         22.5600    6.2750   20.0410 N.3   129  MET129     -0.1245
    124  CA        23.8880    6.7410   20.4180 C.3   129  MET129      0.1570
    125  C         24.1960    8.1310   19.7800 C.2   129  MET129      0.2261
    126  O         23.7990    8.4050   18.6390 O.2   129  MET129     -0.2867
    127  CB        24.8980    5.6980   19.9800 C.3   129  MET129      0.0387
    128  CG        26.3240    5.8830   20.5240 C.3   129  MET129      0.0595
    129  SD        27.1210    4.2660   20.6860 S.3   129  MET129     -0.1393
    130  CE        27.5710    3.9660   18.9970 C.3   129  MET129      0.0692
    131  N         27.4900   11.2440   19.2430 N.3   131  PHE131     -0.1241
    132  CA        28.9400   11.3440   18.9880 C.3   131  PHE131      0.1605
    133  C         29.5380   12.7540   19.1800 C.2   131  PHE131      0.2264
    134  O         28.8180   13.7470   19.4250 O.2   131  PHE131     -0.2867
    135  CB        29.2450   10.8180   17.5890 C.3   131  PHE131      0.0534
    136  CG        28.7390    9.4090   17.3320 C.ar  131  PHE131     -0.0203
    137  CD1       29.5010    8.3000   17.6670 C.ar  131  PHE131     -0.0042
    138  CD2       27.5000    9.1950   16.7240 C.ar  131  PHE131     -0.0042
    139  CE1       29.0310    7.0130   17.4200 C.ar  131  PHE131     -0.0003
    140  CE2       27.0430    7.9050   16.4730 C.ar  131  PHE131     -0.0003
    141  CZ        27.8020    6.8260   16.8330 C.ar  131  PHE131     -0.0000
@<TRIPOS>BOND
     1   121   120    1
     2   140   138   ar
     3   140   141   ar
     4   138   136   ar
     5    14    13    1
     6   119   120    1
     7   119   116    1
     8   141   139   ar
     9   120   122    1
    10   136   135    1
    11   136   137   ar
    12   118   117    2
    13   117   116    1
    14   139   137   ar
    15   135   132    1
    16   116   115    1
    17    13    10    1
    18    13    15    1
    19    10     9    1
    20    10    11    1
    21   126   125    2
    22   132   133    1
    23   132   131    1
    24   130   129    1
    25   133   134    2
    26    12    11    2
    27    11    16   am
    28   125   124    1
    29   127   124    1
    30   127   128    1
    31   123   124    1
    32    16    17    1
    33   128   129    1
    34    93    92    1
    35    92    89    1
    36    84    86   ar
    37    84    82   ar
    38    17    18    1
    39    17    20    1
    40    86    87   ar
    41   113   111   ar
    42   113   114   ar
    43    89    88    1
    44    89    90    1
    45    18    19    2
    46    81    82    1
    47    81    78    1
    48    82    83   ar
    49   104   103    2
    50    87    85   ar
    51   103   102    1
    52   111   108   ar
    53    22    20    1
    54   114   112   ar
    55    21    20    1
    56    83    85   ar
    57    79    80    2
    58    79    78    1
    59    90    91    2
    60    78    77    1
    61   108   110   ar
    62   108   106   ar
    63    29    27    1
    64   102   105    1
    65   102   101    1
    66   112   110   ar
    67   100    98    1
    68    27    28    1
    69    27    24    1
    70    98    95    1
    71    98    99    1
    72   105   106    1
    73    26    25    2
    74    74    73    2
    75   110   109   ar
    76     4     3    2
    77   106   107   ar
    78    94    95    1
    79    95    96    1
    80    75    76    1
    81    75    72    1
    82     3     2    1
    83    24    25    1
    84    24    23    1
    85    25    30   am
    86    73    72    1
    87    38    39   ar
    88    38    36   ar
    89    39    37   ar
    90   109   107   ar
    91    36    35   ar
    92    72    71    1
    93    46    45    2
    94    47    45   am
    95    45    44    1
    96    40    41    1
    97    96    97    2
    98    30    31    1
    99    44    41    1
   100     2     1    1
   101     2     5    1
   102    41    42    1
   103    37    35   ar
   104    31    32    1
   105    31    34    1
   106    35    34    1
   107    33    32    2
   108    66    65    2
   109     7     6   ar
   110     5     6    1
   111     6     8   ar
   112    42    43    2
   113    70    68    1
   114    65    64    1
   115    67    68    1
   116    67    64    1
   117    54    53    1
   118    68    69    1
   119    64    63    1
   120    55    53    1
   121    48    49    1
   122    53    52    1
   123    52    49    1
   124    49    50    1
   125    50    51    2
   126    62    60    1
   127    56    57    1
   128    57    60    1
   129    57    58    1
   130    61    60    1
   131    58    59    2
