@<TRIPOS>MOLECULE
tmp/2z78A00.pdb
 253 238 0 0 0
SMALL
GASTEIGER

@<TRIPOS>ATOM
      1  N         42.4800   52.5210    7.7820 N.3    41  ARG41      -0.1245
      2  CA        41.8510   52.9990    8.9990 C.3    41  ARG41       0.1563
      3  C         42.9120   53.7540    9.8150 C.2    41  ARG41       0.2260
      4  O         42.6390   54.8160   10.3760 O.2    41  ARG41      -0.2867
      5  CB        41.2740   51.8220    9.7920 C.3    41  ARG41       0.0307
      6  CG        39.9510   51.3060    9.2150 C.3    41  ARG41       0.0489
      7  CD        39.3920   50.0770    9.9820 C.3    41  ARG41       0.2205
      8  NE        40.3490   48.9690   10.0040 N.pl3  41  ARG41      -0.0865
      9  CZ        40.4370   48.0030    9.0910 C.cat  41  ARG41       0.5346
     10  NH1       39.6200   47.9660    8.0480 N.pl3  41  ARG41       0.1354
     11  NH2       41.3630   47.0770    9.2280 N.pl3  41  ARG41       0.1354
     12  N         43.2740   57.2850    8.4570 N.3    44  LEU44      -0.1231
     13  CA        42.2610   58.2830    8.8300 C.3    44  LEU44       0.1693
     14  C         42.4860   58.7330   10.2950 C.2    44  LEU44       0.2591
     15  O         42.3590   59.9060   10.6540 O.2    44  LEU44      -0.2718
     16  CB        40.8610   57.6860    8.6600 C.3    44  LEU44       0.0284
     17  CG        39.6470   58.4470    9.1950 C.3    44  LEU44       0.0019
     18  CD1       39.6700   59.8670    8.6820 C.3    44  LEU44       0.0001
     19  CD2       38.3490   57.7050    8.7600 C.3    44  LEU44       0.0001
     20  N         42.8210   57.7820   11.1490 N.am   45  ILE45      -0.1980
     21  CA        43.0810   58.1110   12.5340 C.3    45  ILE45       0.1595
     22  C         44.2850   59.0720   12.6030 C.2    45  ILE45       0.2287
     23  O         44.2480   60.0780   13.3020 O.2    45  ILE45      -0.2864
     24  CB        43.3170   56.8140   13.3340 C.3    45  ILE45       0.0276
     25  CG1       41.9950   56.0460   13.3860 C.3    45  ILE45       0.0022
     26  CG2       43.8620   57.1150   14.7150 C.3    45  ILE45       0.0022
     27  CD1       42.0650   54.7560   14.1450 C.3    45  ILE45       0.0001
     28  N         40.0940   50.0380   18.1060 N.3    66  VAL66      -0.1245
     29  CA        39.3280   50.1510   16.9080 C.3    66  VAL66       0.1561
     30  C         39.4330   48.9000   16.0370 C.2    66  VAL66       0.2260
     31  O         38.4180   48.4320   15.4920 O.2    66  VAL66      -0.2867
     32  CB        39.7870   51.4120   16.1510 C.3    66  VAL66       0.0252
     33  CG1       39.3470   51.3840   14.6940 C.3    66  VAL66       0.0019
     34  CG2       39.2490   52.6230   16.8930 C.3    66  VAL66       0.0019
     35  N         36.2330   46.5850   15.2010 N.3    70  HIS70      -0.1241
     36  CA        35.9190   46.5030   13.7870 C.3    70  HIS70       0.1621
     37  C         36.0200   45.0750   13.2710 C.2    70  HIS70       0.2264
     38  O         35.0600   44.5610   12.6900 O.2    70  HIS70      -0.2867
     39  CB        36.8550   47.4070   12.9800 C.3    70  HIS70       0.0745
     40  CG        36.6050   47.3960   11.5050 C.ar   70  HIS70       0.0817
     41  ND1       35.4010   47.7860   10.9420 N.ar   70  HIS70      -0.2268
     42  CD2       37.4120   47.0750   10.4680 C.ar   70  HIS70       0.1154
     43  CE1       35.4740   47.7030    9.6300 C.ar   70  HIS70       0.1986
     44  NE2       36.6870   47.2750    9.3150 N.ar   70  HIS70      -0.2212
     45  N         33.3200   42.8560   14.7770 N.3    73  SER73      -0.1202
     46  CA        32.0320   43.2330   14.1720 C.3    73  SER73       0.2020
     47  C         31.7920   42.5480   12.8260 C.2    73  SER73       0.2618
     48  O         30.6410   42.1780   12.4960 O.2    73  SER73      -0.2717
     49  CB        31.9600   44.7510   13.9050 C.3    73  SER73       0.2103
     50  OG        31.6830   45.3700   15.1200 O.3    73  SER73      -0.2182
     51  N         32.8560   42.4500   12.0300 N.am   74  LEU74      -0.1979
     52  CA        32.7720   41.8560   10.7010 C.3    74  LEU74       0.1596
     53  C         32.5840   40.3600   10.8330 C.2    74  LEU74       0.2287
     54  O         31.8000   39.7630   10.0860 O.2    74  LEU74      -0.2864
     55  CB        34.0520   42.1630    9.8720 C.3    74  LEU74       0.0297
     56  CG        34.3490   43.6430    9.6370 C.3    74  LEU74       0.0022
     57  CD1       35.5430   43.8230    8.6760 C.3    74  LEU74       0.0001
     58  CD2       33.1130   44.3110    9.0550 C.3    74  LEU74       0.0001
     59  N         31.0680   38.7990   13.1690 N.3    76  ILE76      -0.1231
     60  CA        29.6540   38.6100   13.5230 C.3    76  ILE76       0.1692
     61  C         28.7140   38.9470   12.3700 C.2    76  ILE76       0.2592
     62  O         27.7330   38.2590   12.1290 O.2    76  ILE76      -0.2718
     63  CB        29.2310   39.5060   14.7300 C.3    76  ILE76       0.0266
     64  CG1       29.9450   39.0890   16.0180 C.3    76  ILE76       0.0019
     65  CG2       27.6590   39.3420   14.9880 C.3    76  ILE76       0.0020
     66  CD1       29.5290   37.7060   16.5250 C.3    76  ILE76       0.0001
     67  N         29.0260   40.0390   11.6700 N.am   77  ASP77      -0.1960
     68  CA        28.2190   40.5060   10.5570 C.3    77  ASP77       0.1840
     69  C         28.1080   39.4150    9.4970 C.2    77  ASP77       0.2622
     70  O         27.0130   39.1480    8.9700 O.2    77  ASP77      -0.2715
     71  CB        28.8350   41.7570    9.9200 C.3    77  ASP77       0.1450
     72  CG        27.9300   42.3580    8.8210 C.2    77  ASP77       0.3671
     73  OD1       26.7800   42.7320    9.1320 O.co2  77  ASP77      -0.2456
     74  OD2       28.3470   42.4330    7.6490 O.co2  77  ASP77      -0.2456
     75  N         29.2500   38.7870    9.1870 N.am   78  ASP78      -0.1971
     76  CA        29.2800   37.7320    8.1920 C.3    78  ASP78       0.1709
     77  C         28.4540   36.5070    8.5840 C.2    78  ASP78       0.2293
     78  O         27.8750   35.8410    7.7250 O.2    78  ASP78      -0.2864
     79  CB        30.7560   37.3630    7.8870 C.3    78  ASP78       0.1436
     80  CG        31.4580   38.4600    7.0610 C.2    78  ASP78       0.3671
     81  OD1       30.7380   39.3010    6.4190 O.co2  78  ASP78      -0.2456
     82  OD2       32.7180   38.4930    7.0510 O.co2  78  ASP78      -0.2456
     83  N         25.8310   36.7810   10.6570 N.3    80  GLU80      -0.1231
     84  CA        24.4620   37.3320   10.5660 C.3    80  GLU80       0.1699
     85  C         23.8770   37.4890    9.1380 C.2    80  GLU80       0.2592
     86  O         22.6540   37.4690    8.9250 O.2    80  GLU80      -0.2718
     87  CB        24.4140   38.6700   11.3200 C.3    80  GLU80       0.0402
     88  CG        24.4880   38.4690   12.8050 C.3    80  GLU80       0.1161
     89  CD        24.7650   39.7390   13.5810 C.2    80  GLU80       0.3649
     90  OE1       24.6920   39.6530   14.8210 O.co2  80  GLU80      -0.2457
     91  OE2       25.0690   40.7910   12.9640 O.co2  80  GLU80      -0.2457
     92  N         24.7670   37.6530    8.1670 N.am   81  ASP81      -0.1974
     93  CA        24.3810   37.8230    6.7730 C.3    81  ASP81       0.1709
     94  C         24.5640   36.5100    5.9960 C.2    81  ASP81       0.2293
     95  O         24.2770   36.4780    4.8120 O.2    81  ASP81      -0.2864
     96  CB        25.2600   38.9260    6.1140 C.3    81  ASP81       0.1436
     97  CG        25.0070   40.3480    6.7130 C.2    81  ASP81       0.3671
     98  OD1       24.0960   40.5000    7.5620 O.co2  81  ASP81      -0.2456
     99  OD2       25.7160   41.3170    6.3340 O.co2  81  ASP81      -0.2456
    100  N         34.7350   37.5210    2.2670 N.3    86  ARG86      -0.1245
    101  CA        35.0270   38.8590    2.7890 C.3    86  ARG86       0.1563
    102  C         36.4320   39.2150    2.1940 C.2    86  ARG86       0.2260
    103  O         37.3420   38.3920    2.2330 O.2    86  ARG86      -0.2867
    104  CB        34.9940   38.8210    4.3450 C.3    86  ARG86       0.0307
    105  CG        35.7000   39.9500    5.1480 C.3    86  ARG86       0.0489
    106  CD        34.9340   41.2420    5.5410 C.3    86  ARG86       0.2205
    107  NE        33.5590   41.1180    6.0670 N.pl3  86  ARG86      -0.0865
    108  CZ        32.6850   42.1170    5.9330 C.cat  86  ARG86       0.5346
    109  NH1       33.0970   43.2260    5.3290 N.pl3  86  ARG86       0.1354
    110  NH2       31.4150   42.0190    6.3320 N.pl3  86  ARG86       0.1354
    111  N         35.5460   41.6730   21.8910 N.3   109  TYR109     -0.1241
    112  CA        34.8730   42.9020   22.2870 C.3   109  TYR109      0.1605
    113  C         35.3700   43.1810   23.6920 C.2   109  TYR109      0.2264
    114  O         35.6560   44.3340   24.0590 O.2   109  TYR109     -0.2867
    115  CB        33.3390   42.7500   22.3690 C.3   109  TYR109      0.0534
    116  CG        32.5930   42.6850   21.0230 C.ar  109  TYR109     -0.0201
    117  CD1       31.3130   42.1080   20.9360 C.ar  109  TYR109     -0.0009
    118  CD2       33.1310   43.2590   19.8670 C.ar  109  TYR109     -0.0009
    119  CE1       30.6010   42.1100   19.7350 C.ar  109  TYR109      0.0417
    120  CE2       32.4200   43.2680   18.6550 C.ar  109  TYR109      0.0417
    121  CZ        31.1580   42.6910   18.6030 C.ar  109  TYR109      0.1957
    122  OH        30.4630   42.6860   17.4260 O.3   109  TYR109     -0.2866
    123  N         25.7790   50.9050   18.1100 N.3   140  LEU140     -0.1231
    124  CA        26.1590   49.9400   17.0790 C.3   140  LEU140      0.1693
    125  C         25.1410   48.7670   17.0150 C.2   140  LEU140      0.2592
    126  O         24.6510   48.4320   15.9690 O.2   140  LEU140     -0.2718
    127  CB        27.5290   49.3320   17.4530 C.3   140  LEU140      0.0284
    128  CG        28.8130   49.3560   16.6410 C.3   140  LEU140      0.0019
    129  CD1       28.7160   50.2940   15.5050 C.3   140  LEU140      0.0001
    130  CD2       29.9560   49.7720   17.5810 C.3   140  LEU140      0.0001
    131  N         24.8990   48.1290   18.1530 N.am  141  HIS141     -0.1976
    132  CA        24.0010   46.9870   18.1960 C.3   141  HIS141      0.1656
    133  C         22.5490   47.4220   17.8910 C.2   141  HIS141      0.2291
    134  O         21.8120   46.6750   17.2910 O.2   141  HIS141     -0.2864
    135  CB        24.1410   46.2380   19.5610 C.3   141  HIS141      0.0771
    136  CG        25.4360   45.4770   19.6840 C.ar  141  HIS141      0.0820
    137  ND1       25.5800   44.1540   19.2930 N.ar  141  HIS141     -0.2267
    138  CD2       26.6680   45.8880   20.0530 C.ar  141  HIS141      0.1154
    139  CE1       26.8460   43.7880   19.4270 C.ar  141  HIS141      0.1986
    140  NE2       27.5250   44.8230   19.8820 N.ar  141  HIS141     -0.2212
    141  N         22.3440   47.7960   14.0340 N.3   144  GLN144     -0.1245
    142  CA        22.4890   46.4520   13.4430 C.3   144  GLN144      0.1566
    143  C         21.2200   45.6150   13.6860 C.2   144  GLN144      0.2260
    144  O         20.8050   44.8220   12.8310 O.2   144  GLN144     -0.2867
    145  CB        23.7120   45.7080   14.0260 C.3   144  GLN144      0.0367
    146  CG        23.8860   44.2910   13.4860 C.3   144  GLN144      0.0905
    147  CD        24.5940   44.2060   12.1140 C.2   144  GLN144      0.2608
    148  OE1       24.6590   45.1820   11.3610 O.2   144  GLN144     -0.2717
    149  NE2       25.0980   43.0180   11.7830 N.am  144  GLN144     -0.0878
    150  N         18.6010   46.7840   11.1430 N.3   147  ASP147     -0.1239
    151  CA        18.9820   46.3530    9.7990 C.3   147  ASP147      0.1674
    152  C         18.6210   44.8800    9.6140 C.2   147  ASP147      0.2266
    153  O         17.9710   44.5050    8.6140 O.2   147  ASP147     -0.2867
    154  CB        20.4920   46.5590    9.5560 C.3   147  ASP147      0.1410
    155  CG        20.8400   46.7470    8.0610 C.2   147  ASP147      0.3668
    156  OD1       20.0090   47.2730    7.3020 O.co2 147  ASP147     -0.2456
    157  OD2       21.9570   46.3840    7.6290 O.co2 147  ASP147     -0.2456
    158  N         24.1270   52.1420   13.4510 N.3   171  LYS171     -0.1231
    159  CA        25.0100   51.0750   13.0040 C.3   171  LYS171      0.1693
    160  C         26.4320   51.4020   12.4950 C.2   171  LYS171      0.2592
    161  O         27.4080   50.7640   12.8950 O.2   171  LYS171     -0.2718
    162  CB        24.3310   50.2520   11.9070 C.3   171  LYS171      0.0285
    163  CG        25.1770   49.0310   11.5050 C.3   171  LYS171      0.0035
    164  CD        24.6270   48.3690   10.2320 C.3   171  LYS171      0.0206
    165  CE        24.5730   49.3880    9.1260 C.3   171  LYS171      0.1093
    166  NZ        23.7260   48.9290    8.0000 N.3   171  LYS171     -0.1314
    167  N         26.5340   52.3500   11.5800 N.am  172  THR172     -0.1953
    168  CA        27.8040   52.6750   10.9640 C.3   172  THR172      0.1897
    169  C         28.4820   53.8210   11.6870 C.2   172  THR172      0.2313
    170  O         29.7050   53.8040   11.8720 O.2   172  THR172     -0.2863
    171  CB        27.6000   53.0380    9.5020 C.3   172  THR172      0.1794
    172  OG1       26.6650   52.1160    8.9390 O.3   172  THR172     -0.2208
    173  CG2       28.9340   52.9560    8.7060 C.3   172  THR172      0.0378
    174  N         31.1260   53.1070   15.2360 N.3   175  LEU175     -0.1231
    175  CA        32.5750   52.9910   15.2820 C.3   175  LEU175      0.1693
    176  C         33.3150   54.2970   14.9340 C.2   175  LEU175      0.2592
    177  O         34.3360   54.5930   15.5180 O.2   175  LEU175     -0.2718
    178  CB        33.0350   51.8680   14.3430 C.3   175  LEU175      0.0284
    179  CG        33.8040   50.7710   15.0470 C.3   175  LEU175      0.0019
    180  CD1       34.9700   51.3660   15.8390 C.3   175  LEU175      0.0001
    181  CD2       32.8650   50.0630   15.9900 C.3   175  LEU175      0.0001
    182  N         32.8240   55.0430   13.9550 N.am  176  PHE176     -0.1976
    183  CA        33.4150   56.3190   13.5850 C.3   176  PHE176      0.1639
    184  C         33.3930   57.2750   14.7870 C.2   176  PHE176      0.2290
    185  O         34.4070   57.9130   15.0990 O.2   176  PHE176     -0.2864
    186  CB        32.6350   56.9430   12.4230 C.3   176  PHE176      0.0560
    187  CG        33.0070   56.4030   11.0750 C.ar  176  PHE176     -0.0200
    188  CD1       34.0930   56.9450   10.3690 C.ar  176  PHE176     -0.0042
    189  CD2       32.2600   55.3830   10.4770 C.ar  176  PHE176     -0.0042
    190  CE1       34.4170   56.4740    9.0740 C.ar  176  PHE176     -0.0003
    191  CE2       32.5610   54.9110    9.2100 C.ar  176  PHE176     -0.0003
    192  CZ        33.6470   55.4550    8.4970 C.ar  176  PHE176     -0.0000
    193  N         35.6500   56.1570   17.9000 N.3   179  THR179     -0.1218
    194  CA        37.0440   56.5380   17.6990 C.3   179  THR179      0.1862
    195  C         37.2980   58.0330   17.8800 C.2   179  THR179      0.2287
    196  O         38.2040   58.4220   18.6030 O.2   179  THR179     -0.2866
    197  CB        37.5090   56.1590   16.3200 C.3   179  THR179      0.1770
    198  OG1       37.2600   54.7610   16.1180 O.3   179  THR179     -0.2211
    199  CG2       39.0460   56.4670   16.1820 C.3   179  THR179      0.0375
    200  N         29.9730   56.5510    3.7350 N.3   207  TYR207     -0.1227
    201  CA        30.5490   55.2120    3.6950 C.3   207  TYR207      0.1736
    202  C         29.4920   54.1250    3.4690 C.2   207  TYR207      0.2595
    203  O         29.6170   53.2910    2.5780 O.2   207  TYR207     -0.2718
    204  CB        31.2690   54.9460    4.9940 C.3   207  TYR207      0.0548
    205  CG        31.8150   53.5770    5.0710 C.ar  207  TYR207     -0.0200
    206  CD1       33.0410   53.2600    4.4800 C.ar  207  TYR207     -0.0009
    207  CD2       31.0920   52.5680    5.6890 C.ar  207  TYR207     -0.0009
    208  CE1       33.5330   51.9580    4.5030 C.ar  207  TYR207      0.0417
    209  CE2       31.5640   51.2810    5.7230 C.ar  207  TYR207      0.0417
    210  CZ        32.7910   50.9770    5.1280 C.ar  207  TYR207      0.1957
    211  OH        33.2540   49.6940    5.1970 O.3   207  TYR207     -0.2866
    212  N         28.4600   54.1100    4.2910 N.am  208  GLN208     -0.1979
    213  CA        27.4570   53.0670    4.1150 C.3   208  GLN208      0.1601
    214  C         26.7290   53.1840    2.8020 C.2   208  GLN208      0.2287
    215  O         26.5360   52.1790    2.1100 O.2   208  GLN208     -0.2864
    216  CB        26.4050   53.0720    5.2410 C.3   208  GLN208      0.0394
    217  CG        25.5470   51.7810    5.1960 C.3   208  GLN208      0.0908
    218  CD        26.4210   50.5780    5.3860 C.2   208  GLN208      0.2608
    219  OE1       27.1620   50.5140    6.3640 O.2   208  GLN208     -0.2717
    220  NE2       26.3720   49.6260    4.4440 N.am  208  GLN208     -0.0878
    221  N         28.9320   52.0590   -0.0530 N.3   211  ASP211     -0.1239
    222  CA        29.0750   50.6220    0.1140 C.3   211  ASP211      0.1674
    223  C         27.8650   49.9550   -0.5830 C.2   211  ASP211      0.2266
    224  O         28.0220   49.1210   -1.4430 O.2   211  ASP211     -0.2867
    225  CB        29.0980   50.3390    1.6380 C.3   211  ASP211      0.1410
    226  CG        29.2850   48.8500    1.9970 C.2   211  ASP211      0.3668
    227  OD1       29.9530   48.5730    3.0150 O.co2 211  ASP211     -0.2456
    228  OD2       28.7570   47.9520    1.3130 O.co2 211  ASP211     -0.2456
    229  N         24.5690   41.6950   -1.6580 N.3   228  ASP228     -0.1239
    230  CA        23.5050   42.3210   -0.8370 C.3   228  ASP228      0.1674
    231  C         22.0930   41.8760   -1.3350 C.2   228  ASP228      0.2266
    232  O         21.1490   41.9000   -0.5820 O.2   228  ASP228     -0.2867
    233  CB        23.5350   43.8640   -0.8760 C.3   228  ASP228      0.1410
    234  CG        24.7280   44.4730   -0.0830 C.2   228  ASP228      0.3668
    235  OD1       25.4670   43.7000    0.5420 O.co2 228  ASP228     -0.2456
    236  OD2       24.8920   45.7230   -0.0510 O.co2 228  ASP228     -0.2456
    237  N         19.0290   42.4750    1.8610 N.3   233  LYS233     -0.1245
    238  CA        19.2380   43.7300    2.5710 C.3   233  LYS233      0.1561
    239  C         18.4310   44.9330    2.1270 C.2   233  LYS233      0.2260
    240  O         18.2340   45.1630    0.9430 O.2   233  LYS233     -0.2867
    241  CB        20.7210   44.1380    2.4880 C.3   233  LYS233      0.0271
    242  CG        21.0440   45.3360    3.3500 C.3   233  LYS233      0.0035
    243  CD        22.4730   45.8520    3.1130 C.3   233  LYS233      0.0206
    244  CE        23.3820   45.5210    4.2970 C.3   233  LYS233      0.1093
    245  NZ        24.7320   46.1690    4.1780 N.3   233  LYS233     -0.1314
    246  N         38.1450   51.4980    3.6770 N.3   321  LEU321     -0.1245
    247  CA        38.3280   51.5070    5.1280 C.3   321  LEU321      0.1561
    248  C         37.9600   50.1930    5.7970 C.2   321  LEU321      0.2260
    249  O         37.5490   50.2380    6.9790 O.2   321  LEU321     -0.2867
    250  CB        37.5030   52.6320    5.7670 C.3   321  LEU321      0.0270
    251  CG        37.9810   54.0790    5.6200 C.3   321  LEU321      0.0019
    252  CD1       37.0700   54.9840    6.4190 C.3   321  LEU321      0.0001
    253  CD2       39.4390   54.2210    6.1160 C.3   321  LEU321      0.0001
@<TRIPOS>BOND
     1   229   230    1
     2   224   223    2
     3   231   230    1
     4   231   232    2
     5   233   230    1
     6   233   234    1
     7   223   222    1
     8   234   236   ar
     9   234   235   ar
    10   221   222    1
    11   222   225    1
    12   240   239    2
    13   228   226   ar
    14   225   226    1
    15   237   238    1
    16   226   227   ar
    17   215   214    2
    18   239   238    1
    19   102   103    2
    20   102   101    1
    21   100   101    1
    22   241   238    1
    23   241   242    1
    24   203   202    2
    25   101   104    1
    26   214   213    1
    27   243   242    1
    28   243   244    1
    29   202   201    1
    30   202   212   am
    31   246   247    1
    32   201   200    1
    33   201   204    1
    34   213   212    1
    35   213   216    1
    36   245   244    1
    37   104   105    1
    38   220   218   am
    39   206   208   ar
    40   206   205   ar
    41   208   210   ar
    42    95    94    2
    43   204   205    1
    44   205   207   ar
    45   210   211    1
    46   210   209   ar
    47   247   250    1
    48   247   248    1
    49   105   106    1
    50   217   216    1
    51   217   218    1
    52   109   108    1
    53   218   219    2
    54   106   107    1
    55   251   250    1
    56   251   253    1
    57   251   252    1
    58   207   209   ar
    59   248   249    2
    60   108   107    2
    61   108   110    1
    62    94    93    1
    63    96    97    1
    64    96    93    1
    65    99    97   ar
    66    81    80   ar
    67    97    98   ar
    68    93    92    1
    69    82    80   ar
    70    80    79    1
    71   156   155   ar
    72   157   155   ar
    73    74    72   ar
    74    78    77    2
    75     1     2    1
    76    79    76    1
    77   166   165    1
    78    10     9    1
    79   155   154    1
    80    92    85   am
    81    76    77    1
    82    76    75    1
    83    12    13    1
    84   192   190   ar
    85   192   191   ar
    86   153   152    2
    87    16    13    1
    88    16    17    1
    89    57    56    1
    90    18    17    1
    91   173   171    1
    92    19    17    1
    93    72    73   ar
    94    72    71    1
    95    13    14    1
    96    86    85    2
    97   172   171    1
    98    70    69    2
    99     2     5    1
   100     2     3    1
   101    58    56    1
   102   190   188   ar
   103     9    11    1
   104     9     8    2
   105   165   164    1
   106    85    84    1
   107    75    69   am
   108   191   189   ar
   109     6     5    1
   110     6     7    1
   111    44    43   ar
   112    44    42   ar
   113    69    68    1
   114   171   168    1
   115   154   151    1
   116   152   151    1
   117    43    41   ar
   118    56    55    1
   119   151   150    1
   120     3     4    2
   121    55    52    1
   122    71    68    1
   123     7     8    1
   124    54    53    2
   125   164   163    1
   126    14    15    2
   127    14    20   am
   128   188   187   ar
   129    42    40   ar
   130   189   187   ar
   131    68    67    1
   132    84    83    1
   133    84    87    1
   134    52    53    1
   135    52    51    1
   136    41    40   ar
   137   168   167    1
   138   168   169    1
   139   187   186    1
   140    20    21    1
   141    87    88    1
   142   148   147    2
   143   163   162    1
   144    40    39    1
   145   167   160   am
   146    67    61   am
   147   169   170    2
   148   149   147   am
   149   162   159    1
   150    51    47   am
   151   147   146    1
   152    62    61    2
   153    61    60    1
   154   186   183    1
   155   160   161    2
   156   160   159    1
   157    48    47    2
   158    21    22    1
   159    21    24    1
   160    22    23    2
   161    38    37    2
   162    88    89    1
   163    47    46    1
   164   144   143    2
   165    91    89   ar
   166    39    36    1
   167   159   158    1
   168    59    60    1
   169    37    36    1
   170    24    25    1
   171    24    26    1
   172    25    27    1
   173   142   143    1
   174   142   145    1
   175   142   141    1
   176   146   145    1
   177    60    63    1
   178    89    90   ar
   179   183   182    1
   180   183   184    1
   181    36    35    1
   182    49    46    1
   183    49    50    1
   184   182   176   am
   185    46    45    1
   186   178   179    1
   187   178   175    1
   188    33    32    1
   189    63    65    1
   190    63    64    1
   191   184   185    2
   192   176   175    1
   193   176   177    2
   194   179   180    1
   195   179   181    1
   196   174   175    1
   197    31    30    2
   198   129   128    1
   199   126   125    2
   200    64    66    1
   201    30    29    1
   202   198   197    1
   203    32    34    1
   204    32    29    1
   205   199   197    1
   206   197   194    1
   207   128   127    1
   208   128   130    1
   209    29    28    1
   210   125   124    1
   211   125   131   am
   212   124   127    1
   213   124   123    1
   214   134   133    2
   215   122   121    1
   216   194   195    1
   217   194   193    1
   218   195   196    2
   219   133   132    1
   220   131   132    1
   221   132   135    1
   222   121   120   ar
   223   121   119   ar
   224   120   118   ar
   225   137   139   ar
   226   137   136   ar
   227   139   140   ar
   228   135   136    1
   229   136   138   ar
   230   119   117   ar
   231   118   116   ar
   232   140   138   ar
   233   117   116   ar
   234   116   115    1
   235   111   112    1
   236   112   115    1
   237   112   113    1
   238   113   114    2
