@<TRIPOS>MOLECULE
tmp/2z7gA00.pdb
 193 186 0 0 0
SMALL
GASTEIGER

@<TRIPOS>ATOM
      1  N         16.2320   13.5110   26.3080 N.3    14  HIS14      -0.1241
      2  CA        15.6550   14.8570   26.1310 C.3    14  HIS14       0.1621
      3  C         15.3580   15.5880   27.4510 C.2    14  HIS14       0.2264
      4  O         14.7190   15.0450   28.3250 O.2    14  HIS14      -0.2867
      5  CB        14.3530   14.7540   25.3330 C.3    14  HIS14       0.0745
      6  CG        14.5150   14.1660   23.9820 C.ar   14  HIS14       0.0817
      7  ND1       14.7010   14.9270   22.8380 N.ar   14  HIS14      -0.2268
      8  CD2       14.5740   12.8770   23.5540 C.ar   14  HIS14       0.1154
      9  CE1       14.8740   14.1640   21.7830 C.ar   14  HIS14       0.1986
     10  NE2       14.8020   12.9000   22.2010 N.ar   14  HIS14      -0.2212
     11  N         13.4040   18.2380   27.8990 N.3    16  ASP16      -0.1239
     12  CA        11.9650   18.4860   27.9320 C.3    16  ASP16       0.1674
     13  C         11.1140   17.2180   28.0460 C.2    16  ASP16       0.2266
     14  O          9.8920   17.2840   28.0100 O.2    16  ASP16      -0.2867
     15  CB        11.5270   19.3220   26.7130 C.3    16  ASP16       0.1410
     16  CG        12.0680   18.7790   25.3920 C.2    16  ASP16       0.3668
     17  OD1       11.9820   19.4990   24.3790 O.co2  16  ASP16      -0.2456
     18  OD2       12.5800   17.6370   25.3540 O.co2  16  ASP16      -0.2456
     19  N          1.4330    9.6350   16.2440 N.3    55  LEU55      -0.1245
     20  CA         2.3320   10.7740   16.3850 C.3    55  LEU55       0.1561
     21  C          1.5870   11.9090   17.0950 C.2    55  LEU55       0.2260
     22  O          2.0730   12.4650   18.0850 O.2    55  LEU55      -0.2867
     23  CB         2.8230   11.2510   15.0200 C.3    55  LEU55       0.0270
     24  CG         3.7140   12.4950   15.0360 C.3    55  LEU55       0.0019
     25  CD1        4.8770   12.2750   15.9720 C.3    55  LEU55       0.0001
     26  CD2        4.2080   12.7960   13.6330 C.3    55  LEU55       0.0001
     27  N          0.8970   11.4380   20.7040 N.3    58  PHE58      -0.1227
     28  CA         2.2090   11.5840   21.3360 C.3    58  PHE58       0.1736
     29  C          2.6660   13.0320   21.4670 C.2    58  PHE58       0.2595
     30  O          3.1320   13.4630   22.5240 O.2    58  PHE58      -0.2718
     31  CB         3.2640   10.8220   20.5340 C.3    58  PHE58       0.0547
     32  CG         4.6580   10.9970   21.0580 C.ar   58  PHE58      -0.0202
     33  CD1        5.0540   10.3830   22.2350 C.ar   58  PHE58      -0.0042
     34  CD2        5.5580   11.8170   20.3980 C.ar   58  PHE58      -0.0042
     35  CE1        6.3210   10.5780   22.7450 C.ar   58  PHE58      -0.0003
     36  CE2        6.8350   12.0220   20.9020 C.ar   58  PHE58      -0.0003
     37  CZ         7.2140   11.4010   22.0780 C.ar   58  PHE58      -0.0000
     38  N          2.5620   13.7670   20.3630 N.am   59  LEU59      -0.1980
     39  CA         2.9520   15.1650   20.3240 C.3    59  LEU59       0.1596
     40  C          2.1400   15.9330   21.3640 C.2    59  LEU59       0.2287
     41  O          2.6870   16.7030   22.1550 O.2    59  LEU59      -0.2864
     42  CB         2.6860   15.7440   18.9320 C.3    59  LEU59       0.0297
     43  CG         1.6870   16.9050   18.8720 C.3    59  LEU59       0.0022
     44  CD1        2.3280   18.1580   19.4710 C.3    59  LEU59       0.0001
     45  CD2        1.2640   17.1630   17.4230 C.3    59  LEU59       0.0001
     46  N          3.2160   16.9790   24.8360 N.3    62  PHE62      -0.1241
     47  CA         4.0070   18.1760   25.1010 C.3    62  PHE62       0.1605
     48  C          3.1830   19.4510   25.2600 C.2    62  PHE62       0.2264
     49  O          3.5160   20.3040   26.0930 O.2    62  PHE62      -0.2867
     50  CB         5.0680   18.3590   24.0090 C.3    62  PHE62       0.0534
     51  CG         6.0680   17.2360   23.9440 C.ar   62  PHE62      -0.0203
     52  CD1        5.7830   16.0700   23.2420 C.ar   62  PHE62      -0.0042
     53  CD2        7.2890   17.3340   24.6020 C.ar   62  PHE62      -0.0042
     54  CE1        6.6850   15.0110   23.2160 C.ar   62  PHE62      -0.0003
     55  CE2        8.2000   16.2770   24.5860 C.ar   62  PHE62      -0.0003
     56  CZ         7.9030   15.1200   23.8840 C.ar   62  PHE62      -0.0000
     57  N         17.8840   19.0420   23.7940 N.3    99  TYR99      -0.1227
     58  CA        16.6180   19.7540   23.7540 C.3    99  TYR99       0.1736
     59  C         16.6570   20.8520   22.6850 C.2    99  TYR99       0.2596
     60  O         17.7160   21.2490   22.2200 O.2    99  TYR99      -0.2718
     61  CB        16.3550   20.3940   25.1200 C.3    99  TYR99       0.0548
     62  CG        17.3170   21.5140   25.4150 C.ar   99  TYR99      -0.0200
     63  CD1       16.9590   22.8410   25.1850 C.ar   99  TYR99      -0.0009
     64  CD2       18.6100   21.2490   25.8500 C.ar   99  TYR99      -0.0009
     65  CE1       17.8680   23.8690   25.3770 C.ar   99  TYR99       0.0417
     66  CE2       19.5310   22.2760   26.0360 C.ar   99  TYR99       0.0417
     67  CZ        19.1520   23.5850   25.7960 C.ar   99  TYR99       0.1957
     68  OH        20.0490   24.6110   25.9620 O.3    99  TYR99      -0.2866
     69  N         15.4830   21.3230   22.2980 N.am  100  SER100     -0.1952
     70  CA        15.3550   22.3660   21.2990 C.3   100  SER100      0.1924
     71  C         15.1890   23.6830   22.0520 C.2   100  SER100      0.2314
     72  O         14.1670   23.9110   22.6970 O.2   100  SER100     -0.2863
     73  CB        14.1230   22.1280   20.4180 C.3   100  SER100      0.2116
     74  OG        13.8810   23.2440   19.5840 O.3   100  SER100     -0.2180
     75  N         11.9920   25.5860   21.4650 N.3   103  LEU103     -0.1245
     76  CA        10.7860   25.0490   22.0680 C.3   103  LEU103      0.1561
     77  C         10.5290   25.4960   23.5090 C.2   103  LEU103      0.2260
     78  O          9.4880   25.1890   24.0910 O.2   103  LEU103     -0.2867
     79  CB        10.8040   23.5190   21.9790 C.3   103  LEU103      0.0270
     80  CG        10.7940   23.0480   20.5240 C.3   103  LEU103      0.0019
     81  CD1       10.6380   21.5460   20.4430 C.3   103  LEU103      0.0001
     82  CD2        9.6530   23.7290   19.8030 C.3   103  LEU103      0.0001
     83  N          3.7810   26.1120   21.2610 N.3   114  TRP114     -0.1241
     84  CA         2.7730   25.8650   22.2780 C.3   114  TRP114      0.1605
     85  C          1.6820   26.9290   22.4580 C.2   114  TRP114      0.2264
     86  O          1.1510   27.0860   23.5600 O.2   114  TRP114     -0.2867
     87  CB         3.4810   25.6360   23.6160 C.3   114  TRP114      0.0550
     88  CG         4.7800   24.8920   23.4780 C.ar  114  TRP114      0.0003
     89  CD1        6.0340   25.3710   23.7400 C.ar  114  TRP114      0.0946
     90  CD2        4.9650   23.5620   22.9920 C.ar  114  TRP114      0.0152
     91  NE1        6.9850   24.4230   23.4460 N.ar  114  TRP114     -0.2442
     92  CE2        6.3510   23.2990   22.9890 C.ar  114  TRP114      0.0810
     93  CE3        4.0920   22.5560   22.5650 C.ar  114  TRP114      0.0012
     94  CZ2        6.8820   22.0770   22.5690 C.ar  114  TRP114      0.0191
     95  CZ3        4.6190   21.3460   22.1500 C.ar  114  TRP114      0.0001
     96  CH2        6.0000   21.1180   22.1570 C.ar  114  TRP114      0.0015
     97  N         18.9060   20.5440   19.6340 N.3   150  CYS150     -0.1235
     98  CA        18.2170   19.8830   18.5380 C.3   150  CYS150      0.1677
     99  C         17.6510   20.8160   17.4850 C.2   150  CYS150      0.2270
    100  O         17.2330   21.9310   17.7840 O.2   150  CYS150     -0.2867
    101  CB        17.0670   19.0470   19.0720 C.3   150  CYS150      0.0956
    102  SG        17.5290   17.8590   20.3600 S.3   150  CYS150     -0.0801
    103  N         14.8130   20.8900   14.3900 N.3   152  MET152     -0.1245
    104  CA        13.5540   20.1750   14.2070 C.3   152  MET152      0.1570
    105  C         13.2960   19.9020   12.7230 C.2   152  MET152      0.2261
    106  O         13.2880   20.8190   11.8870 O.2   152  MET152     -0.2867
    107  CB        12.3940   20.9680   14.8110 C.3   152  MET152      0.0387
    108  CG        12.5450   21.2860   16.3020 C.3   152  MET152      0.0595
    109  SD        12.7790   19.8220   17.3520 S.3   152  MET152     -0.1393
    110  CE        11.2510   18.9510   17.0520 C.3   152  MET152      0.0692
    111  N         10.7840   19.5490   11.0240 N.3   154  HIS154     -0.1241
    112  CA         9.7360   20.3470   10.3930 C.3   154  HIS154      0.1621
    113  C          9.9920   21.8450   10.3220 C.2   154  HIS154      0.2264
    114  O          9.1670   22.5750    9.7790 O.2   154  HIS154     -0.2867
    115  CB         8.4000   20.1310   11.0960 C.3   154  HIS154      0.0745
    116  CG         8.3280   20.7560   12.4560 C.ar  154  HIS154      0.0817
    117  ND1        8.7430   20.1030   13.5950 N.ar  154  HIS154     -0.2268
    118  CD2        7.9150   21.9830   12.8490 C.ar  154  HIS154      0.1154
    119  CE1        8.5810   20.9030   14.6350 C.ar  154  HIS154      0.1986
    120  NE2        8.0830   22.0490   14.2120 N.ar  154  HIS154     -0.2212
    121  N         15.8190   16.1600   15.4280 N.3   180  ALA180     -0.1231
    122  CA        14.7550   15.3430   15.9990 C.3   180  ALA180      0.1694
    123  C         13.4570   15.7070   15.2910 C.2   180  ALA180      0.2593
    124  O         13.4470   16.6120   14.4680 O.2   180  ALA180     -0.2718
    125  CB        14.6370   15.6030   17.4940 C.3   180  ALA180      0.0304
    126  N         12.3690   15.0050   15.6070 N.am  181  GLY181     -0.1942
    127  CA        11.1000   15.2870   14.9530 C.3   181  GLY181      0.2014
    128  C         10.6250   14.2170   13.9820 C.2   181  GLY181      0.2638
    129  O         11.3070   13.2220   13.7390 O.2   181  GLY181     -0.2714
    130  N          9.4410   14.4250   13.4160 N.am  182  ASP182     -0.1971
    131  CA         8.8400   13.4690   12.4800 C.3   182  ASP182      0.1709
    132  C          9.8120   12.9970   11.4050 C.2   182  ASP182      0.2293
    133  O         10.3090   13.7850   10.6050 O.2   182  ASP182     -0.2864
    134  CB         7.6140   14.0940   11.8000 C.3   182  ASP182      0.1436
    135  CG         6.8070   13.0810   11.0050 C.2   182  ASP182      0.3671
    136  OD1        7.2920   11.9480   10.8160 O.co2 182  ASP182     -0.2456
    137  OD2        5.6920   13.4120   10.5750 O.co2 182  ASP182     -0.2456
    138  N         18.5780   11.8380   14.8140 N.3   211  HIS211     -0.1241
    139  CA        17.5550   10.8340   15.1200 C.3   211  HIS211      0.1621
    140  C         17.1680   10.2460   13.7510 C.2   211  HIS211      0.2264
    141  O         16.5200   10.9220   12.9600 O.2   211  HIS211     -0.2867
    142  CB        16.2940   11.4660   15.7160 C.3   211  HIS211      0.0745
    143  CG        16.3560   11.7330   17.1950 C.ar  211  HIS211      0.0817
    144  ND1       17.0500   12.7920   17.7360 N.ar  211  HIS211     -0.2268
    145  CD2       15.7540   11.1050   18.2320 C.ar  211  HIS211      0.1154
    146  CE1       16.8690   12.8070   19.0470 C.ar  211  HIS211      0.1986
    147  NE2       16.0890   11.7980   19.3710 N.ar  211  HIS211     -0.2212
    148  N         14.5260    5.3190   13.6210 N.3   214  GLU214     -0.1245
    149  CA        13.5990    4.9830   14.6850 C.3   214  GLU214      0.1567
    150  C         12.2790    4.5050   14.0690 C.2   214  GLU214      0.2260
    151  O         11.7410    3.4600   14.4540 O.2   214  GLU214     -0.2867
    152  CB        13.3510    6.1960   15.6040 C.3   214  GLU214      0.0388
    153  CG        12.2300    6.0020   16.6150 C.3   214  GLU214      0.1160
    154  CD        12.0760    7.1590   17.6000 C.2   214  GLU214      0.3649
    155  OE1       12.0820    8.3360   17.1700 O.co2 214  GLU214     -0.2457
    156  OE2       11.9250    6.8930   18.8050 O.co2 214  GLU214     -0.2457
    157  N         18.8620    6.0380   17.7880 N.3   235  HIS235     -0.1241
    158  CA        18.0280    4.8860   17.4490 C.3   235  HIS235      0.1621
    159  C         18.6300    4.0590   16.3110 C.2   235  HIS235      0.2264
    160  O         19.3010    3.0560   16.5570 O.2   235  HIS235     -0.2867
    161  CB        16.6240    5.3470   17.0490 C.3   235  HIS235      0.0745
    162  CG        15.8860    6.0640   18.1310 C.ar  235  HIS235      0.0817
    163  ND1       15.5530    5.4600   19.3250 N.ar  235  HIS235     -0.2268
    164  CD2       15.4000    7.3220   18.1970 C.ar  235  HIS235      0.1154
    165  CE1       14.8910    6.3170   20.0710 C.ar  235  HIS235      0.1986
    166  NE2       14.7840    7.4570   19.4120 N.ar  235  HIS235     -0.2212
    167  N         15.7990    8.2470   26.8810 N.3   292  ASP292     -0.1225
    168  CA        15.0980    9.0970   25.9110 C.3   292  ASP292      0.1805
    169  C         14.1850   10.1270   26.5840 C.2   292  ASP292      0.2597
    170  O         14.4530   11.3260   26.5270 O.2   292  ASP292     -0.2718
    171  CB        14.3010    8.2030   24.9400 C.3   292  ASP292      0.1424
    172  CG        14.0870    8.8500   23.5770 C.2   292  ASP292      0.3668
    173  OD1       14.6210    9.9680   23.3320 O.co2 292  ASP292     -0.2456
    174  OD2       13.3750    8.2260   22.7540 O.co2 292  ASP292     -0.2456
    175  N         13.1120    9.6570   27.2200 N.am  293  ASP293     -0.1974
    176  CA        12.1570   10.5490   27.9030 C.3   293  ASP293      0.1709
    177  C         11.5750    9.8600   29.1290 C.2   293  ASP293      0.2293
    178  O         10.5160    9.2370   29.0570 O.2   293  ASP293     -0.2864
    179  CB        11.0070   10.9380   26.9750 C.3   293  ASP293      0.1436
    180  CG        11.4890   11.5340   25.6740 C.2   293  ASP293      0.3671
    181  OD1       11.4410   12.7750   25.5000 O.co2 293  ASP293     -0.2456
    182  OD2       11.9340   10.7430   24.8080 O.co2 293  ASP293     -0.2456
    183  N          7.7450    8.0320   29.2880 N.3   297  PHE297     -0.1241
    184  CA         7.8110    6.5770   29.4170 C.3   297  PHE297      0.1605
    185  C          7.8150    6.1010   30.8710 C.2   297  PHE297      0.2264
    186  O          8.0620    4.9250   31.1370 O.2   297  PHE297     -0.2867
    187  CB         9.0380    6.0500   28.6730 C.3   297  PHE297      0.0534
    188  CG         9.1480    6.5450   27.2530 C.ar  297  PHE297     -0.0203
    189  CD1        8.0690    6.4290   26.3800 C.ar  297  PHE297     -0.0042
    190  CD2       10.2960    7.1760   26.8050 C.ar  297  PHE297     -0.0042
    191  CE1        8.1560    6.8930   25.0720 C.ar  297  PHE297     -0.0003
    192  CE2       10.3900    7.6400   25.4930 C.ar  297  PHE297     -0.0003
    193  CZ         9.3060    7.5170   24.6400 C.ar  297  PHE297     -0.0000
@<TRIPOS>BOND
     1   114   113    2
     2   113   112    1
     3   112   111    1
     4   112   115    1
     5   137   135   ar
     6   133   132    2
     7   136   135   ar
     8   135   134    1
     9   115   116    1
    10   132   131    1
    11   134   131    1
    12   106   105    2
    13   116   118   ar
    14   116   117   ar
    15   131   130    1
    16   105   104    1
    17   118   120   ar
    18   141   140    2
    19   130   128   am
    20   117   119   ar
    21   148   149    1
    22    26    24    1
    23   129   128    2
    24   140   139    1
    25   128   127    1
    26   150   151    2
    27   150   149    1
    28   104   103    1
    29   104   107    1
    30   120   119   ar
    31   124   123    2
    32   149   152    1
    33   107   108    1
    34   138   139    1
    35   127   126    1
    36    23    24    1
    37    23    20    1
    38    24    25    1
    39   139   142    1
    40   123   126   am
    41   123   122    1
    42   121   122    1
    43   152   153    1
    44   142   143    1
    45   122   125    1
    46    19    20    1
    47   108   109    1
    48   159   160    2
    49   159   158    1
    50    20    21    1
    51   153   154    1
    52   161   158    1
    53   161   162    1
    54   110   109    1
    55    21    22    2
    56   155   154   ar
    57   143   144   ar
    58   143   145   ar
    59    45    43    1
    60   158   157    1
    61    99   100    2
    62    99    98    1
    63   154   156   ar
    64   144   146   ar
    65   162   164   ar
    66   162   163   ar
    67   164   166   ar
    68   145   147   ar
    69    98   101    1
    70    98    97    1
    71    43    42    1
    72    43    44    1
    73    42    39    1
    74   146   147   ar
    75   101   102    1
    76   163   165   ar
    77   166   165   ar
    78    74    73    1
    79    82    80    1
    80    39    38    1
    81    39    40    1
    82    38    29   am
    83    34    36   ar
    84    34    32   ar
    85    73    70    1
    86    81    80    1
    87    80    79    1
    88    31    32    1
    89    31    28    1
    90    27    28    1
    91    36    37   ar
    92    32    33   ar
    93    83    84    1
    94    70    71    1
    95    70    69    1
    96    28    29    1
    97    40    41    2
    98    75    76    1
    99    29    30    2
   100     9    10   ar
   101     9     7   ar
   102    79    76    1
   103    71    72    2
   104    76    77    1
   105    37    35   ar
   106    95    96   ar
   107    95    93   ar
   108    96    94   ar
   109    10     8   ar
   110    60    59    2
   111    33    35   ar
   112    84    85    1
   113    84    87    1
   114    69    59   am
   115    85    86    2
   116    93    90   ar
   117    94    92   ar
   118    59    58    1
   119   174   172   ar
   120     7     6   ar
   121    92    90   ar
   122    92    91   ar
   123    90    88   ar
   124    54    52   ar
   125    54    56   ar
   126    52    51   ar
   127   173   172   ar
   128    91    89   ar
   129    88    87    1
   130    88    89   ar
   131    77    78    2
   132     8     6   ar
   133   172   171    1
   134    58    57    1
   135    58    61    1
   136    56    55   ar
   137    51    50    1
   138    51    53   ar
   139     6     5    1
   140    50    47    1
   141    17    16   ar
   142    55    53   ar
   143   193   191   ar
   144   193   192   ar
   145   182   180   ar
   146    46    47    1
   147   171   168    1
   148   191   189   ar
   149    47    48    1
   150    61    62    1
   151    63    65   ar
   152    63    62   ar
   153    48    49    2
   154     5     2    1
   155    18    16   ar
   156    65    67   ar
   157    16    15    1
   158    62    64   ar
   159   192   190   ar
   160   181   180   ar
   161   180   179    1
   162    67    68    1
   163    67    66   ar
   164    64    66   ar
   165   168   169    1
   166   168   167    1
   167     2     1    1
   168     2     3    1
   169   189   188   ar
   170   170   169    2
   171   169   175   am
   172    15    12    1
   173   190   188   ar
   174   179   176    1
   175   175   176    1
   176   188   187    1
   177     3     4    2
   178    11    12    1
   179   176   177    1
   180    12    13    1
   181    14    13    2
   182   187   184    1
   183   178   177    2
   184   183   184    1
   185   184   185    1
   186   185   186    2
