@<TRIPOS>MOLECULE
tmp/2z7hA00.pdb
 215 198 0 0 0
SMALL
GASTEIGER

@<TRIPOS>ATOM
      1  N         43.1380   52.8700    6.7990 N.3    35  ARG35      -0.1245
      2  CA        42.3280   53.2250    8.0000 C.3    35  ARG35       0.1563
      3  C         43.2010   53.4960    9.2380 C.2    35  ARG35       0.2260
      4  O         42.7310   54.0070   10.2670 O.2    35  ARG35      -0.2867
      5  CB        41.2860   52.1330    8.2460 C.3    35  ARG35       0.0307
      6  CG        40.2140   52.0900    7.1140 C.3    35  ARG35       0.0489
      7  CD        39.1330   53.1700    7.2820 C.3    35  ARG35       0.2205
      8  NE        38.6570   53.7660    6.0270 N.pl3  35  ARG35      -0.0865
      9  CZ        37.5380   54.4910    5.9200 C.cat  35  ARG35       0.5346
     10  NH1       36.7640   54.6970    6.9840 N.pl3  35  ARG35       0.1354
     11  NH2       37.2120   55.0540    4.7600 N.pl3  35  ARG35       0.1354
     12  N         43.5200   56.9960    8.5590 N.3    38  LEU38      -0.1245
     13  CA        42.3930   57.8210    9.0160 C.3    38  LEU38       0.1561
     14  C         42.6640   58.2670   10.4560 C.2    38  LEU38       0.2260
     15  O         42.5250   59.4450   10.7850 O.2    38  LEU38      -0.2867
     16  CB        41.0660   57.0320    8.9390 C.3    38  LEU38       0.0270
     17  CG        39.8620   57.6050    9.7080 C.3    38  LEU38       0.0019
     18  CD1       39.2880   58.8140    8.9970 C.3    38  LEU38       0.0001
     19  CD2       38.7970   56.5380    9.8560 C.3    38  LEU38       0.0001
     20  N         40.2230   49.9410   18.3130 N.3    60  VAL60      -0.1245
     21  CA        39.4270   50.0640   17.0900 C.3    60  VAL60       0.1561
     22  C         39.6310   48.8720   16.1590 C.2    60  VAL60       0.2260
     23  O         38.6450   48.3770   15.5710 O.2    60  VAL60      -0.2867
     24  CB        39.7610   51.3870   16.3450 C.3    60  VAL60       0.0252
     25  CG1       39.1890   51.3700   14.9570 C.3    60  VAL60       0.0019
     26  CG2       39.1850   52.5740   17.1310 C.3    60  VAL60       0.0019
     27  N         36.5380   46.5140   15.1340 N.3    64  HIS64      -0.1241
     28  CA        36.2660   46.4430   13.7080 C.3    64  HIS64       0.1621
     29  C         36.3100   45.0070   13.2140 C.2    64  HIS64       0.2264
     30  O         35.3450   44.5200   12.6240 O.2    64  HIS64      -0.2867
     31  CB        37.2670   47.2990   12.9330 C.3    64  HIS64       0.0745
     32  CG        37.0960   47.2540   11.4460 C.ar   64  HIS64       0.0817
     33  ND1       36.0000   47.7890   10.8010 N.ar   64  HIS64      -0.2268
     34  CD2       37.8860   46.7390   10.4720 C.ar   64  HIS64       0.1154
     35  CE1       36.1210   47.6030    9.4990 C.ar   64  HIS64       0.1986
     36  NE2       37.2560   46.9680    9.2720 N.ar   64  HIS64      -0.2212
     37  N         33.5180   42.8580   14.7740 N.3    67  SER67      -0.1202
     38  CA        32.2550   43.2550   14.1370 C.3    67  SER67       0.2020
     39  C         32.0350   42.5770   12.7900 C.2    67  SER67       0.2618
     40  O         30.9030   42.2290   12.4550 O.2    67  SER67      -0.2717
     41  CB        32.2340   44.7660   13.8490 C.3    67  SER67       0.2103
     42  OG        32.0230   45.4290   15.0740 O.3    67  SER67      -0.2182
     43  N         33.1040   42.4800   11.9930 N.am   68  LEU68      -0.1979
     44  CA        33.0180   41.8760   10.6840 C.3    68  LEU68       0.1596
     45  C         32.7990   40.3660   10.8360 C.2    68  LEU68       0.2287
     46  O         31.9840   39.7740   10.1340 O.2    68  LEU68      -0.2864
     47  CB        34.2860   42.1980    9.8660 C.3    68  LEU68       0.0297
     48  CG        34.5670   43.6890    9.6040 C.3    68  LEU68       0.0022
     49  CD1       35.8250   43.8080    8.6850 C.3    68  LEU68       0.0001
     50  CD2       33.3410   44.3570    8.9140 C.3    68  LEU68       0.0001
     51  N         29.2190   40.0950   11.6830 N.3    71  ASP71      -0.1225
     52  CA        28.4890   40.5620   10.5280 C.3    71  ASP71       0.1805
     53  C         28.3740   39.4910    9.4350 C.2    71  ASP71       0.2597
     54  O         27.2740   39.2650    8.8620 O.2    71  ASP71      -0.2718
     55  CB        29.1530   41.8100    9.9630 C.3    71  ASP71       0.1424
     56  CG        28.3580   42.4040    8.8560 C.2    71  ASP71       0.3668
     57  OD1       27.3390   43.0430    9.1690 O.co2  71  ASP71      -0.2456
     58  OD2       28.7190   42.1920    7.6740 O.co2  71  ASP71      -0.2456
     59  N         29.4960   38.8190    9.1440 N.am   72  ASP72      -0.1974
     60  CA        29.4880   37.7880    8.1280 C.3    72  ASP72       0.1709
     61  C         28.6490   36.5940    8.5560 C.2    72  ASP72       0.2293
     62  O         28.1280   35.8940    7.7170 O.2    72  ASP72      -0.2864
     63  CB        30.9100   37.3300    7.7580 C.3    72  ASP72       0.1436
     64  CG        31.6990   38.4380    7.0330 C.2    72  ASP72       0.3671
     65  OD1       31.0330   39.2450    6.3350 O.co2  72  ASP72      -0.2456
     66  OD2       32.9390   38.5220    7.1700 O.co2  72  ASP72      -0.2456
     67  N         25.0920   37.8750    8.1080 N.3    75  ASP75      -0.1239
     68  CA        24.7660   38.0450    6.7070 C.3    75  ASP75       0.1674
     69  C         24.9580   36.7550    5.9050 C.2    75  ASP75       0.2266
     70  O         24.7230   36.7380    4.6950 O.2    75  ASP75      -0.2867
     71  CB        25.5850   39.1910    6.0740 C.3    75  ASP75       0.1410
     72  CG        25.3170   40.5700    6.7320 C.2    75  ASP75       0.3668
     73  OD1       24.4330   40.6930    7.6130 O.co2  75  ASP75      -0.2456
     74  OD2       25.9940   41.5460    6.3620 O.co2  75  ASP75      -0.2456
     75  N         35.0800   37.3430    2.3850 N.3    80  ARG80      -0.1245
     76  CA        35.3780   38.6540    2.9690 C.3    80  ARG80       0.1563
     77  C         36.7490   39.0490    2.3750 C.2    80  ARG80       0.2260
     78  O         37.7650   38.4210    2.6700 O.2    80  ARG80      -0.2867
     79  CB        35.3790   38.5580    4.5180 C.3    80  ARG80       0.0307
     80  CG        36.0170   39.7460    5.2930 C.3    80  ARG80       0.0489
     81  CD        35.2880   41.1090    5.1790 C.3    80  ARG80       0.2205
     82  NE        33.9490   41.1270    5.7940 N.pl3  80  ARG80      -0.0865
     83  CZ        33.1150   42.1670    5.7670 C.cat  80  ARG80       0.5346
     84  NH1       33.4810   43.3060    5.1660 N.pl3  80  ARG80       0.1354
     85  NH2       31.8820   42.0570    6.2950 N.pl3  80  ARG80       0.1354
     86  N         25.9780   50.7550   17.7690 N.3   134  LEU134     -0.1245
     87  CA        26.2810   49.8140   16.7150 C.3   134  LEU134      0.1561
     88  C         25.2620   48.6680   16.6740 C.2   134  LEU134      0.2260
     89  O         24.7330   48.3530   15.5850 O.2   134  LEU134     -0.2867
     90  CB        27.6840   49.2260   16.8780 C.3   134  LEU134      0.0270
     91  CG        27.8980   48.0190   15.9690 C.3   134  LEU134      0.0019
     92  CD1       27.8000   48.4940   14.4940 C.3   134  LEU134      0.0001
     93  CD2       29.2480   47.3210   16.2320 C.3   134  LEU134      0.0001
     94  N         22.5340   47.7070   13.6990 N.3   138  GLN138     -0.1245
     95  CA        22.7000   46.3550   13.1680 C.3   138  GLN138      0.1566
     96  C         21.3500   45.5890   13.3900 C.2   138  GLN138      0.2260
     97  O         20.8590   44.9050   12.5060 O.2   138  GLN138     -0.2867
     98  CB        23.8490   45.6480   13.9050 C.3   138  GLN138      0.0367
     99  CG        24.1690   44.2650   13.4020 C.3   138  GLN138      0.0905
    100  CD        25.0100   44.2830   12.1240 C.2   138  GLN138      0.2608
    101  OE1       25.5290   45.3290   11.7160 O.2   138  GLN138     -0.2717
    102  NE2       25.1600   43.1190   11.5030 N.am  138  GLN138     -0.0878
    103  N         18.7440   46.7710   10.7330 N.3   141  ASP141     -0.1239
    104  CA        19.1100   46.3140    9.3940 C.3   141  ASP141      0.1674
    105  C         18.7150   44.8300    9.2490 C.2   141  ASP141      0.2266
    106  O         18.0650   44.4360    8.2850 O.2   141  ASP141     -0.2867
    107  CB        20.6340   46.5160    9.1930 C.3   141  ASP141      0.1410
    108  CG        21.0390   46.7200    7.7310 C.2   141  ASP141      0.3668
    109  OD1       20.2120   47.2000    6.9130 O.co2 141  ASP141     -0.2456
    110  OD2       22.2220   46.4180    7.4170 O.co2 141  ASP141     -0.2456
    111  N         24.4710   52.0060   13.0350 N.3   165  LYS165     -0.1231
    112  CA        25.2210   50.8630   12.5580 C.3   165  LYS165      0.1693
    113  C         26.6260   51.1990   12.0580 C.2   165  LYS165      0.2592
    114  O         27.5780   50.4910   12.3470 O.2   165  LYS165     -0.2718
    115  CB        24.4600   50.2070   11.3960 C.3   165  LYS165      0.0285
    116  CG        25.1310   48.9400   10.8310 C.3   165  LYS165      0.0035
    117  CD        24.3820   48.3090    9.6050 C.3   165  LYS165      0.0206
    118  CE        24.5600   49.0940    8.2570 C.3   165  LYS165      0.1093
    119  NZ        24.2410   48.2550    7.0020 N.3   165  LYS165     -0.1314
    120  N         26.7230   52.2340   11.2400 N.am  166  THR166     -0.1953
    121  CA        27.9990   52.5540   10.6600 C.3   166  THR166      0.1897
    122  C         28.6620   53.7150   11.3510 C.2   166  THR166      0.2313
    123  O         29.8660   53.6350   11.6310 O.2   166  THR166     -0.2863
    124  CB        27.8520   52.7680    9.1450 C.3   166  THR166      0.1794
    125  OG1       27.2030   51.6080    8.5900 O.3   166  THR166     -0.2208
    126  CG2       29.2350   52.9190    8.4640 C.3   166  THR166      0.0378
    127  N         31.1530   53.0310   14.7860 N.3   169  LEU169     -0.1231
    128  CA        32.5940   52.8590   14.9350 C.3   169  LEU169      0.1693
    129  C         33.3460   54.1370   14.6080 C.2   169  LEU169      0.2592
    130  O         34.4160   54.3690   15.1460 O.2   169  LEU169     -0.2718
    131  CB        33.1410   51.7330   14.0480 C.3   169  LEU169      0.0284
    132  CG        33.6880   50.5030   14.7860 C.3   169  LEU169      0.0019
    133  CD1       34.6370   49.7540   13.8590 C.3   169  LEU169      0.0001
    134  CD2       34.4530   50.9110   16.0660 C.3   169  LEU169      0.0001
    135  N         32.7920   54.9510   13.7150 N.am  170  PHE170     -0.1976
    136  CA        33.4450   56.2020   13.3210 C.3   170  PHE170      0.1639
    137  C         33.4300   57.1610   14.5080 C.2   170  PHE170      0.2290
    138  O         34.4550   57.7600   14.8600 O.2   170  PHE170     -0.2864
    139  CB        32.7270   56.8240   12.0930 C.3   170  PHE170      0.0560
    140  CG        33.1120   56.1970   10.7630 C.ar  170  PHE170     -0.0200
    141  CD1       34.3410   56.5000   10.1580 C.ar  170  PHE170     -0.0042
    142  CD2       32.2700   55.2820   10.1320 C.ar  170  PHE170     -0.0042
    143  CE1       34.7160   55.8890    8.9400 C.ar  170  PHE170     -0.0003
    144  CE2       32.6290   54.6720    8.9280 C.ar  170  PHE170     -0.0003
    145  CZ        33.8490   54.9670    8.3230 C.ar  170  PHE170     -0.0000
    146  N         35.7810   55.8930   17.5240 N.3   173  THR173     -0.1218
    147  CA        37.1670   56.2530   17.2770 C.3   173  THR173      0.1862
    148  C         37.3980   57.7360   17.5520 C.2   173  THR173      0.2287
    149  O         38.2760   58.1150   18.3410 O.2   173  THR173     -0.2866
    150  CB        37.5280   55.9820   15.8080 C.3   173  THR173      0.1770
    151  OG1       37.3930   54.5880   15.5340 O.3   173  THR173     -0.2211
    152  CG2       38.9330   56.4200   15.5060 C.3   173  THR173      0.0375
    153  N         30.2120   56.5170    3.6090 N.3   198  TYR198     -0.1227
    154  CA        30.8390   55.2100    3.5440 C.3   198  TYR198      0.1736
    155  C         29.8010   54.1110    3.2720 C.2   198  TYR198      0.2595
    156  O         30.0330   53.2210    2.4400 O.2   198  TYR198     -0.2718
    157  CB        31.5240   54.8700    4.8670 C.3   198  TYR198      0.0548
    158  CG        32.0140   53.4410    4.9060 C.ar  198  TYR198     -0.0200
    159  CD1       33.3220   53.1200    4.5210 C.ar  198  TYR198     -0.0009
    160  CD2       31.1510   52.3950    5.2700 C.ar  198  TYR198     -0.0009
    161  CE1       33.7620   51.7980    4.4870 C.ar  198  TYR198      0.0417
    162  CE2       31.5790   51.0680    5.2380 C.ar  198  TYR198      0.0417
    163  CZ        32.8930   50.7780    4.8380 C.ar  198  TYR198      0.1957
    164  OH        33.3080   49.4710    4.7460 O.3   198  TYR198     -0.2866
    165  N         28.6730   54.1600    4.0020 N.am  199  GLN199     -0.1979
    166  CA        27.6570   53.1060    3.8490 C.3   199  GLN199      0.1601
    167  C         26.8900   53.1140    2.5420 C.2   199  GLN199      0.2287
    168  O         26.6430   52.0590    1.9500 O.2   199  GLN199     -0.2864
    169  CB        26.6370   53.1090    5.0130 C.3   199  GLN199      0.0394
    170  CG        25.7250   51.8430    4.9890 C.3   199  GLN199      0.0908
    171  CD        26.5500   50.5640    5.1080 C.2   199  GLN199      0.2608
    172  OE1       27.3360   50.4260    6.0440 O.2   199  GLN199     -0.2717
    173  NE2       26.4080   49.6400    4.1540 N.am  199  GLN199     -0.0878
    174  N         29.1750   51.9020   -0.1300 N.3   202  ASP202     -0.1239
    175  CA        29.3590   50.4630    0.0260 C.3   202  ASP202      0.1674
    176  C         28.1330   49.7630   -0.6520 C.2   202  ASP202      0.2266
    177  O         28.3010   48.8750   -1.4790 O.2   202  ASP202     -0.2867
    178  CB        29.4570   50.1360    1.5210 C.3   202  ASP202      0.1410
    179  CG        29.5930   48.6520    1.7900 C.2   202  ASP202      0.3668
    180  OD1       28.9530   48.1300    2.7390 O.co2 202  ASP202     -0.2456
    181  OD2       30.3510   48.0060    1.0500 O.co2 202  ASP202     -0.2456
    182  N         28.2640   47.7380   -4.4200 N.3   206  ASN206     -0.1240
    183  CA        27.9420   46.3410   -4.3880 C.3   206  ASN206      0.1653
    184  C         27.1660   45.9760   -5.6270 C.2   206  ASN206      0.2266
    185  O         27.3370   44.8950   -6.1200 O.2   206  ASN206     -0.2867
    186  CB        27.1410   45.9840   -3.1430 C.3   206  ASN206      0.1155
    187  CG        27.0670   44.4870   -2.9210 C.2   206  ASN206      0.2627
    188  OD1       26.1600   43.7960   -3.4100 O.2   206  ASN206     -0.2716
    189  ND2       28.0490   43.9630   -2.1850 N.am  206  ASN206     -0.0877
    190  N         24.8330   41.6700   -1.8450 N.3   217  ASP217     -0.1239
    191  CA        23.7730   42.2900   -1.0410 C.3   217  ASP217      0.1674
    192  C         22.4010   41.7820   -1.5130 C.2   217  ASP217      0.2266
    193  O         21.4950   41.7220   -0.7100 O.2   217  ASP217     -0.2867
    194  CB        23.7670   43.8380   -1.1550 C.3   217  ASP217      0.1410
    195  CG        24.9070   44.4730   -0.3480 C.2   217  ASP217      0.3668
    196  OD1       25.5450   43.7200    0.4260 O.co2 217  ASP217     -0.2456
    197  OD2       25.1510   45.6950   -0.4690 O.co2 217  ASP217     -0.2456
    198  N         21.7670   38.4510   -0.1350 N.3   220  GLU220     -0.1245
    199  CA        21.5140   38.6140    1.2800 C.3   220  GLU220      0.1567
    200  C         20.1260   39.1820    1.5790 C.2   220  GLU220      0.2260
    201  O         19.5730   38.9120    2.6200 O.2   220  GLU220     -0.2867
    202  CB        22.6510   39.4500    1.9030 C.3   220  GLU220      0.0388
    203  CG        23.9620   38.6300    1.8750 C.3   220  GLU220      0.1160
    204  CD        25.2520   39.3910    2.2750 C.2   220  GLU220      0.3649
    205  OE1       26.3140   38.7160    2.2990 O.co2 220  GLU220     -0.2457
    206  OE2       25.1940   40.6210    2.5590 O.co2 220  GLU220     -0.2457
    207  N         19.3770   42.3870    1.7660 N.3   222  LYS222     -0.1245
    208  CA        19.5880   43.6660    2.4250 C.3   222  LYS222      0.1561
    209  C         18.7610   44.8370    1.8960 C.2   222  LYS222      0.2260
    210  O         18.5930   45.0210    0.6760 O.2   222  LYS222     -0.2867
    211  CB        21.1010   44.0310    2.3350 C.3   222  LYS222      0.0271
    212  CG        21.4380   45.4700    2.6280 C.3   222  LYS222      0.0035
    213  CD        22.8830   45.8350    2.2210 C.3   222  LYS222      0.0206
    214  CE        23.9130   45.3690    3.2610 C.3   222  LYS222      0.1093
    215  NZ        24.1370   46.4760    4.2420 N.3   222  LYS222     -0.1314
@<TRIPOS>BOND
     1   185   184    2
     2   184   183    1
     3   182   183    1
     4   183   186    1
     5   188   187    2
     6   186   187    1
     7   187   189   am
     8   190   191    1
     9   192   191    1
    10   192   193    2
    11   177   176    2
    12   194   191    1
    13   194   195    1
    14   176   175    1
    15   197   195   ar
    16   195   196   ar
    17   198   199    1
    18   174   175    1
    19   175   178    1
    20   210   209    2
    21   181   179   ar
    22   199   200    1
    23   199   202    1
    24   178   179    1
    25   200   201    2
    26   207   208    1
    27   179   180   ar
    28   203   202    1
    29   203   204    1
    30   209   208    1
    31   168   167    2
    32   213   212    1
    33   213   214    1
    34   204   205   ar
    35   204   206   ar
    36   211   208    1
    37   211   212    1
    38    77    78    2
    39    77    76    1
    40    75    76    1
    41   156   155    2
    42   167   166    1
    43    76    79    1
    44   214   215    1
    45   155   154    1
    46   155   165   am
    47   154   153    1
    48   154   157    1
    49   166   165    1
    50   166   169    1
    51   173   171   am
    52   161   159   ar
    53   161   163   ar
    54    79    80    1
    55   159   158   ar
    56    70    69    2
    57   164   163    1
    58    11     9    1
    59   163   162   ar
    60   157   158    1
    61   158   160   ar
    62   170   169    1
    63   170   171    1
    64   171   172    2
    65    84    83    1
    66    81    80    1
    67    81    82    1
    68   162   160   ar
    69    83    82    2
    70    83    85    1
    71    69    68    1
    72     9     8    2
    73     9    10    1
    74     8     7    1
    75    71    68    1
    76    71    72    1
    77    65    64   ar
    78    74    72   ar
    79    68    67    1
    80    72    73   ar
    81     1     2    1
    82   109   108   ar
    83   119   118    1
    84    64    66   ar
    85    64    63    1
    86     6     7    1
    87     6     5    1
    88   110   108   ar
    89    58    56   ar
    90    62    61    2
    91   108   107    1
    92    63    60    1
    93     2     5    1
    94     2     3    1
    95    60    61    1
    96    60    59    1
    97   118   117    1
    98   106   105    2
    99   145   144   ar
   100   145   143   ar
   101   126   124    1
   102    12    13    1
   103   125   124    1
   104    49    48    1
   105    56    57   ar
   106    56    55    1
   107    54    53    2
   108    50    48    1
   109   144   142   ar
   110    16    13    1
   111    16    17    1
   112   143   141   ar
   113    18    17    1
   114    13    14    1
   115    59    53   am
   116   124   121    1
   117   107   104    1
   118     3     4    2
   119   105   104    1
   120    36    35   ar
   121    36    34   ar
   122   104   103    1
   123    53    52    1
   124    35    33   ar
   125    48    47    1
   126   117   116    1
   127    17    19    1
   128    47    44    1
   129    55    52    1
   130   142   140   ar
   131    46    45    2
   132   141   140   ar
   133    14    15    2
   134    34    32   ar
   135    52    51    1
   136   121   120    1
   137   121   122    1
   138    44    45    1
   139    44    43    1
   140   140   139    1
   141    33    32   ar
   142   116   115    1
   143   120   113   am
   144   122   123    2
   145   115   112    1
   146    32    31    1
   147   102   100   am
   148   101   100    2
   149    43    39   am
   150   113   114    2
   151   113   112    1
   152   139   136    1
   153   100    99    1
   154    40    39    2
   155    97    96    2
   156   112   111    1
   157    30    29    2
   158    39    38    1
   159    31    28    1
   160    95    96    1
   161    95    94    1
   162    95    98    1
   163    29    28    1
   164   136   135    1
   165   136   137    1
   166    99    98    1
   167    28    27    1
   168   135   129   am
   169    41    38    1
   170    41    42    1
   171   133   132    1
   172   131   132    1
   173   131   128    1
   174    38    37    1
   175    92    91    1
   176   137   138    2
   177   129   128    1
   178   129   130    2
   179   127   128    1
   180   132   134    1
   181    25    24    1
   182   152   150    1
   183   151   150    1
   184    23    22    2
   185    89    88    2
   186   150   147    1
   187    91    93    1
   188    91    90    1
   189    22    21    1
   190    24    21    1
   191    24    26    1
   192    88    87    1
   193    87    90    1
   194    87    86    1
   195    21    20    1
   196   147   146    1
   197   147   148    1
   198   148   149    2
