@<TRIPOS>MOLECULE
tmp/2z7lA00.pdb
 136 126 0 0 0
SMALL
GASTEIGER

@<TRIPOS>ATOM
      1  N         23.4080   13.3670   18.2340 N.3    14  ILE14      -0.1231
      2  CA        23.3000   12.5450   17.0320 C.3    14  ILE14       0.1692
      3  C         22.0790   12.9140   16.1800 C.2    14  ILE14       0.2593
      4  O         22.1800   13.0600   14.9610 O.2    14  ILE14      -0.2718
      5  CB        23.1940   11.0470   17.4030 C.3    14  ILE14       0.0266
      6  CG1       24.5230   10.3380   17.1510 C.3    14  ILE14       0.0019
      7  CG2       22.0830   10.3840   16.5980 C.3    14  ILE14       0.0020
      8  CD1       24.4120    8.8090   17.1640 C.3    14  ILE14       0.0001
      9  N         20.9250   13.0490   16.8280 N.am   15  GLY15      -0.1942
     10  CA        19.7080   13.3910   16.1110 C.3    15  GLY15       0.2014
     11  C         18.5200   13.6230   17.0250 C.2    15  GLY15       0.2638
     12  O         18.6750   13.7780   18.2390 O.2    15  GLY15      -0.2714
     13  N         17.3270   13.6440   16.4380 N.am   16  GLU16      -0.1977
     14  CA        16.1000   13.8670   17.1960 C.3    16  GLU16       0.1602
     15  C         15.0010   12.9590   16.6520 C.2    16  GLU16       0.2287
     16  O         14.9800   11.7590   16.9270 O.2    16  GLU16      -0.2864
     17  CB        15.6770   15.3330   17.0720 C.3    16  GLU16       0.0415
     18  CG        14.7070   15.8370   18.1410 C.3    16  GLU16       0.1163
     19  CD        15.3990   16.1510   19.4590 C.2    16  GLU16       0.3649
     20  OE1       16.4620   16.7690   19.4270 O.co2  16  GLU16      -0.2457
     21  OE2       14.8600   15.7850   20.5120 O.co2  16  GLU16      -0.2457
     22  N         18.7590   11.5550   20.7590 N.3    19  VAL19      -0.1245
     23  CA        19.6200   10.4130   20.4730 C.3    19  VAL19       0.1561
     24  C         21.0780   10.8560   20.3930 C.2    19  VAL19       0.2260
     25  O         21.4080   11.8080   19.6840 O.2    19  VAL19      -0.2867
     26  CB        19.2340    9.7520   19.1430 C.3    19  VAL19       0.0252
     27  CG1       20.0980    8.5270   18.9010 C.3    19  VAL19       0.0019
     28  CG2       17.7690    9.3950   19.1560 C.3    19  VAL19       0.0019
     29  N         24.7530    3.6460   20.1230 N.3    32  ALA32      -0.1245
     30  CA        23.8330    4.7850   20.1100 C.3    32  ALA32       0.1562
     31  C         22.8270    4.6540   21.2390 C.2    32  ALA32       0.2260
     32  O         22.4060    3.5500   21.5800 O.2    32  ALA32      -0.2867
     33  CB        23.1010    4.8690   18.7630 C.3    32  ALA32       0.0290
     34  N         19.1470    6.4280   23.0380 N.3    34  LYS34      -0.1245
     35  CA        17.9820    7.2550   22.8020 C.3    34  LYS34       0.1561
     36  C         17.3340    7.6100   24.1240 C.2    34  LYS34       0.2260
     37  O         16.8970    6.7310   24.8530 O.2    34  LYS34      -0.2867
     38  CB        16.9860    6.5130   21.9040 C.3    34  LYS34       0.0271
     39  CG        17.4850    6.3440   20.4720 C.3    34  LYS34       0.0035
     40  CD        16.5330    5.5270   19.5970 C.3    34  LYS34       0.0206
     41  CE        16.4260    4.0830   20.0620 C.3    34  LYS34       0.1093
     42  NZ        15.5860    3.2840   19.1180 N.3    34  LYS34      -0.1314
     43  N         16.9020   -4.1770   14.2030 N.3    64  ILE64      -0.1245
     44  CA        17.6630   -3.5770   15.2950 C.3    64  ILE64       0.1561
     45  C         17.2240   -4.2070   16.6100 C.2    64  ILE64       0.2260
     46  O         16.0360   -4.4520   16.8320 O.2    64  ILE64      -0.2867
     47  CB        17.4160   -2.0490   15.3690 C.3    64  ILE64       0.0252
     48  CG1       18.5640   -1.3490   16.0960 C.3    64  ILE64       0.0019
     49  CG2       16.1140   -1.7670   16.1030 C.3    64  ILE64       0.0019
     50  CD1       19.8910   -1.3290   15.3240 C.3    64  ILE64       0.0001
     51  N         21.2740    0.7820   21.5770 N.3    85  GLN85      -0.1231
     52  CA        21.2910   -0.0480   20.3560 C.3    85  GLN85       0.1698
     53  C         22.6030    0.0860   19.5740 C.2    85  GLN85       0.2592
     54  O         23.3530    1.0490   19.7540 O.2    85  GLN85      -0.2718
     55  CB        20.1450    0.3500   19.4280 C.3    85  GLN85       0.0381
     56  CG        18.7550    0.2330   20.0170 C.3    85  GLN85       0.0905
     57  CD        17.7120    0.8090   19.0910 C.2    85  GLN85       0.2608
     58  OE1       17.9770    1.7720   18.3760 O.2    85  GLN85      -0.2717
     59  NE2       16.5140    0.2310   19.1060 N.am   85  GLN85      -0.0878
     60  N         22.8740   -0.8670   18.6850 N.am   86  ASP86      -0.1960
     61  CA        24.1000   -0.8100   17.8870 C.3    86  ASP86       0.1840
     62  C         24.1610    0.4640   17.0660 C.2    86  ASP86       0.2622
     63  O         23.1700    0.8820   16.4780 O.2    86  ASP86      -0.2715
     64  CB        24.1960   -2.0260   16.9710 C.3    86  ASP86       0.1450
     65  CG        24.1740   -3.3200   17.7470 C.2    86  ASP86       0.3671
     66  OD1       24.6960   -3.3350   18.8500 O.co2  86  ASP86      -0.2456
     67  OD2       23.6430   -4.2960   17.2480 O.co2  86  ASP86      -0.2456
     68  N         25.3340    1.0820   17.0350 N.am   87  LEU87      -0.1963
     69  CA        25.5420    2.3290   16.3050 C.3    87  LEU87       0.1728
     70  C         25.8330    2.0720   14.8410 C.2    87  LEU87       0.2616
     71  O         26.8590    1.4980   14.4940 O.2    87  LEU87      -0.2715
     72  CB        26.7080    3.1030   16.9340 C.3    87  LEU87       0.0311
     73  CG        27.1940    4.3860   16.2610 C.3    87  LEU87       0.0022
     74  CD1       26.0940    5.4410   16.2490 C.3    87  LEU87       0.0001
     75  CD2       28.4120    4.8930   17.0200 C.3    87  LEU87       0.0001
     76  N         24.9330    2.5180   13.9780 N.am   88  MET88      -0.1963
     77  CA        25.1020    2.3210   12.5450 C.3    88  MET88       0.1736
     78  C         25.7840    3.5310   11.9080 C.2    88  MET88       0.2616
     79  O         25.8350    4.6010   12.4990 O.2    88  MET88      -0.2715
     80  CB        23.7340    2.0890   11.9140 C.3    88  MET88       0.0427
     81  CG        22.8790    1.0850   12.6810 C.3    88  MET88       0.0599
     82  SD        23.4690   -0.6000   12.5200 S.3    88  MET88      -0.1393
     83  CE        22.7300   -1.0810   10.9370 C.3    88  MET88       0.0692
     84  N         26.3050    3.3490   10.7010 N.am   89  GLU89      -0.1963
     85  CA        26.9880    4.4120    9.9830 C.3    89  GLU89       0.1733
     86  C         26.0500    5.4270    9.3290 C.2    89  GLU89       0.2617
     87  O         26.4310    6.5850    9.1250 O.2    89  GLU89      -0.2715
     88  CB        27.9080    3.8150    8.9160 C.3    89  GLU89       0.0429
     89  CG        29.2830    3.3730    9.4240 C.3    89  GLU89       0.1163
     90  CD        29.2260    2.3450   10.5530 C.2    89  GLU89       0.3649
     91  OE1       28.6150    1.2820   10.3770 O.co2  89  GLU89      -0.2457
     92  OE2       29.8130    2.6100   11.6120 O.co2  89  GLU89      -0.2457
     93  N         24.8350    5.0000    8.9950 N.am   90  THR90      -0.1937
     94  CA        23.8680    5.8950    8.3670 C.3    90  THR90       0.2028
     95  C         22.5320    5.1970    8.1470 C.2    90  THR90       0.2642
     96  O         22.2940    4.1300    8.6980 O.2    90  THR90      -0.2714
     97  CB        24.4140    6.4220    7.0160 C.3    90  THR90       0.1808
     98  OG1       23.5200    7.4000    6.4740 O.3    90  THR90      -0.2208
     99  CG2       24.5950    5.2800    6.0280 C.3    90  THR90       0.0379
    100  N         21.6530    5.8170    7.3690 N.am   91  ASP91      -0.1971
    101  CA        20.3560    5.2320    7.0800 C.3    91  ASP91       0.1709
    102  C         20.0570    5.4190    5.5940 C.2    91  ASP91       0.2293
    103  O         20.7610    6.1510    4.9010 O.2    91  ASP91      -0.2864
    104  CB        19.2490    5.8640    7.9460 C.3    91  ASP91       0.1436
    105  CG        18.9470    7.3230    7.5820 C.2    91  ASP91       0.3671
    106  OD1       18.8700    7.6430    6.3800 O.co2  91  ASP91      -0.2456
    107  OD2       18.7580    8.1460    8.5120 O.co2  91  ASP91      -0.2456
    108  N         19.4110    9.3950    4.4790 N.3    94  LYS94      -0.1245
    109  CA        20.5860   10.2360    4.2600 C.3    94  LYS94       0.1561
    110  C         21.3750    9.7540    3.0570 C.2    94  LYS94       0.2260
    111  O         21.9580   10.5510    2.3220 O.2    94  LYS94      -0.2867
    112  CB        21.5010   10.2260    5.4910 C.3    94  LYS94       0.0271
    113  CG        20.9960   11.0440    6.6770 C.3    94  LYS94       0.0035
    114  CD        19.6910   10.4980    7.2310 C.3    94  LYS94       0.0206
    115  CE        19.1330   11.3890    8.3410 C.3    94  LYS94       0.1093
    116  NZ        17.8500   10.8820    8.9140 N.3    94  LYS94      -0.1314
    117  N         14.2660    6.4300    6.3710 N.3   133  SER133     -0.1217
    118  CA        14.7680    6.8490    7.6860 C.3   133  SER133      0.1889
    119  C         14.6560    5.7550    8.7550 C.2   133  SER133      0.2288
    120  O         15.2340    5.8850    9.8290 O.2   133  SER133     -0.2866
    121  CB        14.0990    8.1560    8.1550 C.3   133  SER133      0.2089
    122  OG        12.6920    8.1370    8.0150 O.3   133  SER133     -0.2183
    123  N         18.5070    1.3870    8.9290 N.3   136  LEU136     -0.1245
    124  CA        19.8870    1.7330    9.2560 C.3   136  LEU136      0.1561
    125  C         20.8720    0.8760    8.4750 C.2   136  LEU136      0.2260
    126  O         20.6240   -0.3160    8.2290 O.2   136  LEU136     -0.2867
    127  CB        20.1470    1.5390   10.7590 C.3   136  LEU136      0.0270
    128  CG        19.2740    2.2830   11.7830 C.3   136  LEU136      0.0019
    129  CD1       19.4030    1.6070   13.1520 C.3   136  LEU136      0.0001
    130  CD2       19.6730    3.7400   11.8630 C.3   136  LEU136      0.0001
    131  N         14.2860   -0.4990   11.7540 N.3   146  CYS146     -0.1235
    132  CA        14.1460    0.0770   13.1030 C.3   146  CYS146      0.1677
    133  C         12.8090    0.8080   13.2650 C.2   146  CYS146      0.2270
    134  O         12.0760    1.0360   12.2940 O.2   146  CYS146     -0.2867
    135  CB        15.2320    1.1110   13.4440 C.3   146  CYS146      0.0956
    136  SG        15.0550    2.7100   12.5850 S.3   146  CYS146     -0.0801
@<TRIPOS>BOND
     1   111   110    2
     2   110   109    1
     3   109   108    1
     4   109   112    1
     5   103   102    2
     6   112   113    1
     7   102   101    1
     8    99    97    1
     9   117   118    1
    10   106   105   ar
    11    98    97    1
    12   113   114    1
    13    97    94    1
    14   101   100    1
    15   101   104    1
    16   114   115    1
    17   100    95   am
    18   105   104    1
    19   105   107   ar
    20   118   121    1
    21   118   119    1
    22   122   121    1
    23    95    94    1
    24    95    96    2
    25   126   125    2
    26   115   116    1
    27    94    93    1
    28   125   124    1
    29   119   120    2
    30    88    89    1
    31    88    85    1
    32   123   124    1
    33    93    86   am
    34    87    86    2
    35   124   127    1
    36    86    85    1
    37    89    90    1
    38    85    84    1
    39    91    90   ar
    40    90    92   ar
    41    84    78   am
    42   127   128    1
    43    83    82    1
    44   131   132    1
    45   128   130    1
    46   128   129    1
    47    78    79    2
    48    78    77    1
    49    80    77    1
    50    80    81    1
    51   134   133    2
    52    82    81    1
    53    77    76    1
    54   136   135    1
    55   132   133    1
    56   132   135    1
    57    76    70   am
    58    43    44    1
    59    71    70    2
    60    70    69    1
    61     4     3    2
    62    44    47    1
    63    44    45    1
    64    50    48    1
    65    47    48    1
    66    47    49    1
    67    10     9    1
    68    10    11    1
    69     3     9   am
    70     3     2    1
    71    74    73    1
    72    73    72    1
    73    73    75    1
    74    69    72    1
    75    69    68    1
    76    13    11   am
    77    13    14    1
    78    63    62    2
    79     7     5    1
    80    45    46    2
    81    15    16    2
    82    15    14    1
    83    64    65    1
    84    64    61    1
    85    11    12    2
    86     2     5    1
    87     2     1    1
    88    68    62   am
    89    62    61    1
    90    17    14    1
    91    17    18    1
    92     6     8    1
    93     6     5    1
    94    67    65   ar
    95    65    66   ar
    96    61    60    1
    97    18    19    1
    98    58    57    2
    99    60    53   am
   100    33    30    1
   101    27    26    1
   102    57    59   am
   103    57    56    1
   104    42    41    1
   105    26    28    1
   106    26    23    1
   107    20    19   ar
   108    55    56    1
   109    55    52    1
   110    19    21   ar
   111    53    54    2
   112    53    52    1
   113    40    41    1
   114    40    39    1
   115    25    24    2
   116    30    29    1
   117    30    31    1
   118    52    51    1
   119    24    23    1
   120    39    38    1
   121    23    22    1
   122    31    32    2
   123    38    35    1
   124    35    34    1
   125    35    36    1
   126    36    37    2
