@<TRIPOS>MOLECULE
tmp/2z7qA00.pdb
 178 168 0 0 0
SMALL
GASTEIGER

@<TRIPOS>ATOM
      1  N         -2.7970   -7.9910   31.8160 N.3    13  LEU13      -0.1231
      2  CA        -3.2080   -7.7030   30.4430 C.3    13  LEU13       0.1693
      3  C         -2.7230   -8.7650   29.4790 C.2    13  LEU13       0.2593
      4  O         -3.4590   -9.1770   28.5830 O.2    13  LEU13      -0.2718
      5  CB        -2.6640   -6.3340   30.0420 C.3    13  LEU13       0.0284
      6  CG        -3.6730   -5.2450   29.6110 C.3    13  LEU13       0.0019
      7  CD1       -4.9250   -5.2230   30.5010 C.3    13  LEU13       0.0001
      8  CD2       -2.9970   -3.8640   29.6370 C.3    13  LEU13       0.0001
      9  N         -1.4840   -9.2180   29.6510 N.am   14  GLY14      -0.1942
     10  CA        -0.9880  -10.2470   28.7680 C.3    14  GLY14       0.2014
     11  C          0.5030  -10.4630   28.8920 C.2    14  GLY14       0.2639
     12  O          1.1330  -10.0100   29.8460 O.2    14  GLY14      -0.2714
     13  N          1.0620  -11.1610   27.9090 N.am   15  GLN15      -0.1963
     14  CA         2.4840  -11.4660   27.8560 C.3    15  GLN15       0.1733
     15  C          2.8920  -11.7980   26.4260 C.2    15  GLN15       0.2617
     16  O          2.1160  -12.3760   25.6680 O.2    15  GLN15      -0.2715
     17  CB         2.7880  -12.6470   28.7710 C.3    15  GLN15       0.0408
     18  CG         4.1060  -13.3420   28.4920 C.3    15  GLN15       0.0908
     19  CD         4.4240  -14.3800   29.5440 C.2    15  GLN15       0.2608
     20  OE1        3.5550  -15.1540   29.9420 O.2    15  GLN15      -0.2717
     21  NE2        5.6720  -14.4050   29.9990 N.am   15  GLN15      -0.0878
     22  N          4.1130  -11.4290   26.0590 N.am   16  GLY16      -0.1940
     23  CA         4.5830  -11.7050   24.7160 C.3    16  GLY16       0.2014
     24  C          5.8710  -12.5000   24.7120 C.2    16  GLY16       0.2640
     25  O          6.1730  -13.2110   25.6720 O.2    16  GLY16      -0.2714
     26  N          6.6340  -12.3790   23.6300 N.am   17  SER17      -0.1935
     27  CA         7.8980  -13.0900   23.5090 C.3    17  SER17       0.2055
     28  C          9.0240  -12.2780   24.1380 C.2    17  SER17       0.2643
     29  O         10.2020  -12.6070   23.9820 O.2    17  SER17      -0.2714
     30  CB         8.2100  -13.3580   22.0360 C.3    17  SER17       0.2130
     31  OG         7.1700  -14.1020   21.4260 O.3    17  SER17      -0.2179
     32  N          8.6570  -11.2170   24.8530 N.am   18  PHE18      -0.1959
     33  CA         9.6470  -10.3610   25.4960 C.3    18  PHE18       0.1771
     34  C          9.1940   -9.8250   26.8550 C.2    18  PHE18       0.2620
     35  O          9.5660   -8.7160   27.2450 O.2    18  PHE18      -0.2715
     36  CB        10.0040   -9.1900   24.5740 C.3    18  PHE18       0.0574
     37  CG        11.4560   -9.1470   24.1780 C.ar   18  PHE18      -0.0200
     38  CD1       12.0330  -10.1970   23.4790 C.ar   18  PHE18      -0.0042
     39  CD2       12.2440   -8.0540   24.5030 C.ar   18  PHE18      -0.0042
     40  CE1       13.3700  -10.1570   23.1110 C.ar   18  PHE18      -0.0003
     41  CE2       13.5810   -8.0070   24.1390 C.ar   18  PHE18      -0.0003
     42  CZ        14.1450   -9.0600   23.4420 C.ar   18  PHE18      -0.0000
     43  N          8.3930  -10.6050   27.5760 N.am   19  GLY19      -0.1954
     44  CA         7.9400  -10.1650   28.8840 C.3    19  GLY19       0.1869
     45  C          6.4430  -10.2510   29.1140 C.2    19  GLY19       0.2309
     46  O          5.7000  -10.7540   28.2700 O.2    19  GLY19      -0.2863
     47  N          2.8640   -8.0590   30.4980 N.3    21  VAL21      -0.1245
     48  CA         2.2920   -6.7230   30.6490 C.3    21  VAL21       0.1561
     49  C          1.1130   -6.7030   31.6180 C.2    21  VAL21       0.2260
     50  O          0.1880   -7.5060   31.5000 O.2    21  VAL21      -0.2867
     51  CB         1.8060   -6.1740   29.2910 C.3    21  VAL21       0.0252
     52  CG1        1.3170   -4.7460   29.4540 C.3    21  VAL21       0.0019
     53  CG2        2.9250   -6.2460   28.2690 C.3    21  VAL21       0.0019
     54  N          0.2590    1.0200   31.7880 N.3    37  ALA37      -0.1245
     55  CA         0.5380   -0.3300   31.3440 C.3    37  ALA37       0.1562
     56  C          1.9410   -0.6200   31.8330 C.2    37  ALA37       0.2260
     57  O          2.8830    0.1110   31.5150 O.2    37  ALA37      -0.2867
     58  CB         0.4750   -0.4210   29.8210 C.3    37  ALA37       0.0290
     59  N          5.1640   -3.0880   31.8860 N.3    39  LYS39      -0.1245
     60  CA         5.8490   -4.1640   31.1830 C.3    39  LYS39       0.1561
     61  C          7.0650   -4.5630   32.0090 C.2    39  LYS39       0.2260
     62  O          7.7880   -3.6930   32.5050 O.2    39  LYS39      -0.2867
     63  CB         6.2950   -3.6790   29.8090 C.3    39  LYS39       0.0271
     64  CG         6.1520   -4.6960   28.7230 C.3    39  LYS39       0.0035
     65  CD         6.5460   -4.0800   27.4050 C.3    39  LYS39       0.0206
     66  CE         6.3060   -5.0160   26.2430 C.3    39  LYS39       0.1093
     67  NZ         7.0380   -4.5120   25.0460 N.3    39  LYS39      -0.1314
     68  N          3.8390    5.1390   21.6170 N.3    52  VAL52      -0.1245
     69  CA         3.5020    5.0020   23.0370 C.3    52  VAL52       0.1561
     70  C          4.5090    5.7960   23.8690 C.2    52  VAL52       0.2260
     71  O          5.6920    5.8530   23.5340 O.2    52  VAL52      -0.2867
     72  CB         3.5190    3.5130   23.4770 C.3    52  VAL52       0.0252
     73  CG1        4.9440    3.0330   23.6280 C.3    52  VAL52       0.0019
     74  CG2        2.7450    3.3380   24.7810 C.3    52  VAL52       0.0019
     75  N          4.2300    2.5790   30.8030 N.3    68  LEU68      -0.1231
     76  CA         3.8120    3.2420   29.5710 C.3    68  LEU68       0.1693
     77  C          2.3440    3.6330   29.5880 C.2    68  LEU68       0.2592
     78  O          1.6120    3.2720   30.5080 O.2    68  LEU68      -0.2718
     79  CB         4.0430    2.2990   28.3900 C.3    68  LEU68       0.0284
     80  CG         5.4330    1.6740   28.2660 C.3    68  LEU68       0.0019
     81  CD1        5.2960    0.2770   27.6850 C.3    68  LEU68       0.0001
     82  CD2        6.3310    2.5520   27.4030 C.3    68  LEU68       0.0001
     83  N          1.9160    4.3610   28.5600 N.am   69  ASP69      -0.1960
     84  CA         0.5220    4.7620   28.4560 C.3    69  ASP69       0.1840
     85  C         -0.3350    3.5130   28.4640 C.2    69  ASP69       0.2622
     86  O          0.0720    2.4640   27.9660 O.2    69  ASP69      -0.2715
     87  CB         0.2170    5.4750   27.1320 C.3    69  ASP69       0.1450
     88  CG         1.0080    6.7410   26.9400 C.2    69  ASP69       0.3671
     89  OD1        1.0590    7.5620   27.8810 O.co2  69  ASP69      -0.2456
     90  OD2        1.5600    6.9100   25.8300 O.co2  69  ASP69      -0.2456
     91  N         -1.5270    3.6280   29.0260 N.am   70  PHE70      -0.1960
     92  CA        -2.4450    2.5130   29.0260 C.3    70  PHE70       0.1771
     93  C         -3.3720    2.8360   27.8700 C.2    70  PHE70       0.2619
     94  O         -4.1580    3.7790   27.9560 O.2    70  PHE70      -0.2715
     95  CB        -3.2630    2.4580   30.3150 C.3    70  PHE70       0.0574
     96  CG        -4.3600    1.4380   30.2750 C.ar   70  PHE70      -0.0200
     97  CD1       -5.6080    1.7110   30.8170 C.ar   70  PHE70      -0.0042
     98  CD2       -4.1490    0.2090   29.6630 C.ar   70  PHE70      -0.0042
     99  CE1       -6.6310    0.7720   30.7430 C.ar   70  PHE70      -0.0003
    100  CE2       -5.1630   -0.7290   29.5880 C.ar   70  PHE70      -0.0003
    101  CZ        -6.4070   -0.4470   30.1270 C.ar   70  PHE70      -0.0000
    102  N         -3.2650    2.0890   26.7770 N.am   71  LEU71      -0.1977
    103  CA        -4.1300    2.3370   25.6280 C.3    71  LEU71       0.1596
    104  C         -5.4020    1.5050   25.7800 C.2    71  LEU71       0.2287
    105  O         -5.3490    0.2830   25.7630 O.2    71  LEU71      -0.2864
    106  CB        -3.3940    1.9960   24.3260 C.3    71  LEU71       0.0297
    107  CG        -2.3970    3.0500   23.8230 C.3    71  LEU71       0.0022
    108  CD1       -3.1360    4.3570   23.5950 C.3    71  LEU71       0.0001
    109  CD2       -1.2710    3.2520   24.8200 C.3    71  LEU71       0.0001
    110  N         -7.6010   -1.1620   22.5790 N.3    74  GLY74      -0.1210
    111  CA        -7.2590   -2.4790   22.0690 C.3    74  GLY74       0.1956
    112  C         -6.2940   -2.4030   20.8960 C.2    74  GLY74       0.2611
    113  O         -5.7600   -1.3390   20.5990 O.2    74  GLY74      -0.2717
    114  N         -6.0810   -3.5250   20.2150 N.am   75  ASP75      -0.1973
    115  CA        -5.1510   -3.5610   19.0890 C.3    75  ASP75       0.1709
    116  C         -5.8330   -3.7600   17.7320 C.2    75  ASP75       0.2293
    117  O         -6.9790   -4.2170   17.6500 O.2    75  ASP75      -0.2864
    118  CB        -4.1210   -4.6640   19.3230 C.3    75  ASP75       0.1436
    119  CG        -4.7400   -6.0460   19.3040 C.2    75  ASP75       0.3671
    120  OD1       -4.8830   -6.6200   18.2040 O.co2  75  ASP75      -0.2456
    121  OD2       -5.1020   -6.5550   20.3870 O.co2  75  ASP75      -0.2456
    122  N          9.2390   -5.4030   14.7910 N.3   114  ASP114     -0.1239
    123  CA         7.9810   -6.0830   15.0610 C.3   114  ASP114      0.1674
    124  C          6.7160   -5.3410   14.6150 C.2   114  ASP114      0.2266
    125  O          5.7140   -5.2990   15.3270 O.2   114  ASP114     -0.2867
    126  CB         7.9140   -6.4440   16.5450 C.3   114  ASP114      0.1410
    127  CG         9.0530   -7.3700   16.9610 C.2   114  ASP114      0.3668
    128  OD1       10.2140   -6.9010   17.0100 O.co2 114  ASP114     -0.2456
    129  OD2        8.7930   -8.5690   17.2210 O.co2 114  ASP114     -0.2456
    130  N          3.3620   -4.9440   12.9390 N.3   116  LYS116     -0.1245
    131  CA         2.2550   -5.8430   12.6530 C.3   116  LYS116      0.1561
    132  C          1.0390   -5.3120   13.4120 C.2   116  LYS116      0.2260
    133  O          1.1840   -4.6240   14.4380 O.2   116  LYS116     -0.2867
    134  CB         2.5870   -7.2710   13.1040 C.3   116  LYS116      0.0271
    135  CG         2.9990   -7.4010   14.5750 C.3   116  LYS116      0.0035
    136  CD         3.3170   -8.8550   14.9260 C.3   116  LYS116      0.0206
    137  CE         3.9600   -8.9790   16.3080 C.3   116  LYS116      0.1093
    138  NZ         4.3090  -10.4030   16.6400 N.3   116  LYS116     -0.1314
    139  N         -0.8940   -6.4670   15.5450 N.3   118  GLU118     -0.1231
    140  CA        -0.8980   -6.7400   16.9820 C.3   118  GLU118      0.1699
    141  C         -0.2210   -5.6280   17.7970 C.2   118  GLU118      0.2592
    142  O         -0.6340   -5.3550   18.9230 O.2   118  GLU118     -0.2718
    143  CB        -0.1940   -8.0680   17.3010 C.3   118  GLU118      0.0402
    144  CG        -0.8930   -9.3250   16.8020 C.3   118  GLU118      0.1161
    145  CD        -0.4250   -9.7390   15.4170 C.2   118  GLU118      0.3649
    146  OE1       -0.4850   -8.8970   14.4960 O.co2 118  GLU118     -0.2457
    147  OE2       -0.0020  -10.9060   15.2510 O.co2 118  GLU118     -0.2457
    148  N          0.8040   -4.9880   17.2310 N.am  119  ASN119     -0.1974
    149  CA         1.5360   -3.9420   17.9400 C.3   119  ASN119      0.1688
    150  C          1.0480   -2.5350   17.6820 C.2   119  ASN119      0.2292
    151  O          1.6850   -1.5550   18.0840 O.2   119  ASN119     -0.2864
    152  CB         3.0320   -4.0320   17.6380 C.3   119  ASN119      0.1181
    153  CG         3.6830   -5.2160   18.3270 C.2   119  ASN119      0.2629
    154  OD1        3.2830   -5.5900   19.4260 O.2   119  ASN119     -0.2716
    155  ND2        4.6910   -5.8000   17.6980 N.am  119  ASN119     -0.0877
    156  N         -1.8040   -0.1910   18.6730 N.3   121  LEU121     -0.1245
    157  CA        -2.8760   -0.0100   19.6370 C.3   121  LEU121      0.1561
    158  C         -3.6620    1.2670   19.3920 C.2   121  LEU121      0.2260
    159  O         -3.1540    2.2170   18.7980 O.2   121  LEU121     -0.2867
    160  CB        -2.3010    0.0310   21.0500 C.3   121  LEU121      0.0270
    161  CG        -1.7340   -1.2920   21.5460 C.3   121  LEU121      0.0019
    162  CD1       -1.2270   -1.1080   22.9530 C.3   121  LEU121      0.0001
    163  CD2       -2.8160   -2.3620   21.5040 C.3   121  LEU121      0.0001
    164  N          3.7310    0.4530   19.4120 N.3   131  THR131     -0.1203
    165  CA         4.3050   -0.1200   20.6190 C.3   131  THR131      0.1994
    166  C          5.3250   -1.1890   20.2540 C.2   131  THR131      0.2617
    167  O          5.3060   -1.7230   19.1410 O.2   131  THR131     -0.2717
    168  CB         3.2190   -0.7820   21.4830 C.3   131  THR131      0.1784
    169  OG1        3.7860   -1.2000   22.7340 O.3   131  THR131     -0.2211
    170  CG2        2.6530   -1.9990   20.7660 C.3   131  THR131      0.0376
    171  N          6.2210   -1.4830   21.1910 N.am  132  ASP132     -0.1973
    172  CA         7.2350   -2.5150   21.0040 C.3   132  ASP132      0.1709
    173  C          8.2190   -2.2370   19.8800 C.2   132  ASP132      0.2293
    174  O          8.3460   -3.0120   18.9300 O.2   132  ASP132     -0.2864
    175  CB         6.5450   -3.8540   20.7790 C.3   132  ASP132      0.1436
    176  CG         5.5670   -4.1760   21.8830 C.2   132  ASP132      0.3671
    177  OD1        5.9930   -4.6370   22.9610 O.co2 132  ASP132     -0.2456
    178  OD2        4.3670   -3.9350   21.6760 O.co2 132  ASP132     -0.2456
@<TRIPOS>BOND
     1   131   130    1
     2   131   134    1
     3   131   132    1
     4   134   135    1
     5   132   133    2
     6   146   145   ar
     7   135   136    1
     8   124   123    1
     9   124   125    2
    10   122   123    1
    11   136   137    1
    12   123   126    1
    13   147   145   ar
    14   145   144    1
    15   139   140    1
    16   137   138    1
    17   126   127    1
    18   144   143    1
    19   127   128   ar
    20   127   129   ar
    21   140   143    1
    22   140   141    1
    23   148   141   am
    24   148   149    1
    25   152   149    1
    26   152   153    1
    27   117   116    2
    28   150   149    1
    29   150   151    2
    30   155   153   am
    31   116   115    1
    32   141   142    2
    33   120   119   ar
    34   153   154    2
    35   156   157    1
    36   159   158    2
    37   174   173    2
    38   115   118    1
    39   115   114    1
    40   167   166    2
    41   119   118    1
    42   119   121   ar
    43   158   157    1
    44   164   165    1
    45   157   160    1
    46   173   172    1
    47   114   112   am
    48   166   165    1
    49   166   171   am
    50   113   112    2
    51   165   168    1
    52   170   168    1
    53   175   172    1
    54   175   176    1
    55   112   111    1
    56   172   171    1
    57   160   161    1
    58    31    30    1
    59   168   169    1
    60   163   161    1
    61   161   162    1
    62    68    69    1
    63   178   176   ar
    64   176   177   ar
    65    30    27    1
    66   111   110    1
    67    69    72    1
    68    69    70    1
    69    40    42   ar
    70    40    38   ar
    71    42    41   ar
    72    72    73    1
    73    72    74    1
    74    38    37   ar
    75    27    26    1
    76    27    28    1
    77    71    70    2
    78   108   107    1
    79    26    24   am
    80   107   106    1
    81   107   109    1
    82    29    28    2
    83    28    32   am
    84    41    39   ar
    85    37    39   ar
    86    37    36    1
    87   106   103    1
    88    36    33    1
    89    24    23    1
    90    24    25    2
    91    23    22    1
    92    32    33    1
    93    67    66    1
    94    33    34    1
    95   103   104    1
    96   103   102    1
    97    16    15    2
    98   105   104    2
    99    90    88   ar
   100    22    15   am
   101    66    65    1
   102    15    14    1
   103   102    93   am
   104    34    35    2
   105    34    43   am
   106    88    87    1
   107    88    89   ar
   108    87    84    1
   109    82    80    1
   110    65    64    1
   111    43    44    1
   112    81    80    1
   113    14    13    1
   114    14    17    1
   115    93    94    2
   116    93    92    1
   117    13    11   am
   118    86    85    2
   119    80    79    1
   120    53    51    1
   121    46    45    2
   122    79    76    1
   123    84    85    1
   124    84    83    1
   125    85    91   am
   126    18    17    1
   127    18    19    1
   128    83    77   am
   129     4     3    2
   130    64    63    1
   131    10    11    1
   132    10     9    1
   133    44    45    1
   134    11    12    2
   135    92    91    1
   136    92    95    1
   137    51    52    1
   138    51    48    1
   139     3     9   am
   140     3     2    1
   141    19    20    2
   142    19    21   am
   143    76    77    1
   144    76    75    1
   145   100    98   ar
   146   100   101   ar
   147    77    78    2
   148     6     8    1
   149     6     5    1
   150     6     7    1
   151    98    96   ar
   152    63    60    1
   153    58    55    1
   154     5     2    1
   155   101    99   ar
   156    96    95    1
   157    96    97   ar
   158     2     1    1
   159    47    48    1
   160    48    49    1
   161    99    97   ar
   162    60    59    1
   163    60    61    1
   164    55    54    1
   165    55    56    1
   166    50    49    2
   167    57    56    2
   168    61    62    2
