@<TRIPOS>MOLECULE
tmp/2z7rA00.pdb
 169 160 0 0 0
SMALL
GASTEIGER

@<TRIPOS>ATOM
      1  N         -2.5650   -7.5770   30.8770 N.3    16  LEU16      -0.1231
      2  CA        -2.9400   -7.1240   29.5450 C.3    16  LEU16       0.1693
      3  C         -2.4800   -8.0920   28.4640 C.2    16  LEU16       0.2593
      4  O         -3.2070   -8.3540   27.5070 O.2    16  LEU16      -0.2718
      5  CB        -2.3510   -5.7400   29.2740 C.3    16  LEU16       0.0284
      6  CG        -2.8780   -4.6220   30.1720 C.3    16  LEU16       0.0019
      7  CD1       -2.1880   -3.3120   29.8250 C.3    16  LEU16       0.0001
      8  CD2       -4.3830   -4.5070   29.9960 C.3    16  LEU16       0.0001
      9  N         -1.2700   -8.6170   28.6190 N.am   17  GLY17      -0.1942
     10  CA        -0.7510   -9.5470   27.6370 C.3    17  GLY17       0.2014
     11  C          0.5640  -10.1840   28.0320 C.2    17  GLY17       0.2639
     12  O          1.2690   -9.7060   28.9210 O.2    17  GLY17      -0.2714
     13  N          0.8890  -11.2820   27.3630 N.am   18  GLN18      -0.1963
     14  CA         2.1270  -12.0020   27.6140 C.3    18  GLN18       0.1733
     15  C          3.1050  -11.6970   26.4900 C.2    18  GLN18       0.2616
     16  O          2.9590  -12.1980   25.3760 O.2    18  GLN18      -0.2715
     17  CB         1.8610  -13.5080   27.6670 C.3    18  GLN18       0.0408
     18  CG         3.1200  -14.3620   27.6600 C.3    18  GLN18       0.0908
     19  CD         3.9940  -14.1230   28.8730 C.2    18  GLN18       0.2608
     20  OE1        3.5630  -14.3220   30.0090 O.2    18  GLN18      -0.2717
     21  NE2        5.2310  -13.6970   28.6400 N.am   18  GLN18      -0.0878
     22  N          4.0930  -10.8600   26.7780 N.am   19  GLY19      -0.1955
     23  CA         5.0730  -10.5200   25.7670 C.3    19  GLY19       0.1869
     24  C          6.1820  -11.5510   25.7410 C.2    19  GLY19       0.2309
     25  O          6.3190  -12.3510   26.6670 O.2    19  GLY19      -0.2863
     26  N          3.0270   -8.0100   30.7970 N.3    24  VAL24      -0.1245
     27  CA         2.5440   -6.6320   30.8370 C.3    24  VAL24       0.1561
     28  C          1.2090   -6.5540   31.5760 C.2    24  VAL24       0.2260
     29  O          0.2280   -7.1830   31.1700 O.2    24  VAL24      -0.2867
     30  CB         2.3690   -6.0620   29.4090 C.3    24  VAL24       0.0252
     31  CG1        1.9120   -4.6160   29.4790 C.3    24  VAL24       0.0019
     32  CG2        3.6770   -6.1730   28.6440 C.3    24  VAL24       0.0019
     33  N          0.4370    0.9390   31.9010 N.3    40  ALA40      -0.1245
     34  CA         0.7260   -0.4320   31.5150 C.3    40  ALA40       0.1562
     35  C          2.1320   -0.6750   32.0500 C.2    40  ALA40       0.2260
     36  O          3.0550    0.0890   31.7620 O.2    40  ALA40      -0.2867
     37  CB         0.7040   -0.5780   29.9920 C.3    40  ALA40       0.0290
     38  N          5.3550   -3.0830   32.1200 N.3    42  LYS42      -0.1245
     39  CA         6.0540   -4.1840   31.4750 C.3    42  LYS42       0.1561
     40  C          7.1940   -4.6400   32.3850 C.2    42  LYS42       0.2260
     41  O          8.0760   -3.8530   32.7300 O.2    42  LYS42      -0.2867
     42  CB         6.6000   -3.7300   30.1170 C.3    42  LYS42       0.0271
     43  CG         7.2180   -4.8370   29.2760 C.3    42  LYS42       0.0035
     44  CD         7.6830   -4.3110   27.9250 C.3    42  LYS42       0.0206
     45  CE         8.3720   -5.4210   27.1510 C.3    42  LYS42       0.1093
     46  NZ         7.8590   -5.5710   25.7670 N.3    42  LYS42      -0.1314
     47  N          4.0380    4.8640   21.8390 N.3    62  VAL62      -0.1245
     48  CA         3.7640    4.7120   23.2670 C.3    62  VAL62       0.1561
     49  C          4.8600    5.3800   24.1030 C.2    62  VAL62       0.2260
     50  O          6.0470    5.1190   23.9090 O.2    62  VAL62      -0.2867
     51  CB         3.6450    3.2190   23.6620 C.3    62  VAL62       0.0252
     52  CG1        4.9560    2.4960   23.3950 C.3    62  VAL62       0.0019
     53  CG2        3.2780    3.0990   25.1230 C.3    62  VAL62       0.0019
     54  N          4.4750    2.4260   31.0180 N.3    78  LEU78      -0.1231
     55  CA         4.0980    3.0460   29.7530 C.3    78  LEU78       0.1693
     56  C          2.6470    3.5100   29.7240 C.2    78  LEU78       0.2592
     57  O          1.8740    3.2240   30.6370 O.2    78  LEU78      -0.2718
     58  CB         4.2970    2.0280   28.6200 C.3    78  LEU78       0.0284
     59  CG         5.5900    1.2020   28.5790 C.3    78  LEU78       0.0019
     60  CD1        5.3850   -0.0230   27.6910 C.3    78  LEU78       0.0001
     61  CD2        6.7350    2.0410   28.0550 C.3    78  LEU78       0.0001
     62  N          2.2880    4.2150   28.6560 N.am   79  ASP79      -0.1960
     63  CA         0.9160    4.6710   28.4730 C.3    79  ASP79       0.1840
     64  C          0.0360    3.4300   28.4770 C.2    79  ASP79       0.2622
     65  O          0.4610    2.3600   28.0430 O.2    79  ASP79      -0.2715
     66  CB         0.7050    5.3200   27.0950 C.3    79  ASP79       0.1450
     67  CG         1.3170    6.6920   26.9770 C.2    79  ASP79       0.3671
     68  OD1        1.1440    7.5000   27.9100 O.co2  79  ASP79      -0.2456
     69  OD2        1.9560    6.9620   25.9300 O.co2  79  ASP79      -0.2456
     70  N         -1.1930    3.5770   28.9520 N.am   80  PHE80      -0.1960
     71  CA        -2.1380    2.4780   28.9090 C.3    80  PHE80       0.1771
     72  C         -3.0480    2.8490   27.7330 C.2    80  PHE80       0.2619
     73  O         -3.7090    3.8850   27.7660 O.2    80  PHE80      -0.2715
     74  CB        -2.9630    2.4040   30.1920 C.3    80  PHE80       0.0574
     75  CG        -4.1720    1.5130   30.0740 C.ar   80  PHE80      -0.0200
     76  CD1       -5.3800    1.8760   30.6550 C.ar   80  PHE80      -0.0042
     77  CD2       -4.1060    0.3270   29.3540 C.ar   80  PHE80      -0.0042
     78  CE1       -6.5070    1.0730   30.5170 C.ar   80  PHE80      -0.0003
     79  CE2       -5.2260   -0.4820   29.2120 C.ar   80  PHE80      -0.0003
     80  CZ        -6.4310   -0.1040   29.7950 C.ar   80  PHE80      -0.0000
     81  N         -3.0620    2.0280   26.6850 N.am   81  LEU81      -0.1963
     82  CA        -3.9060    2.2950   25.5170 C.3    81  LEU81       0.1728
     83  C         -5.2070    1.4990   25.6100 C.2    81  LEU81       0.2616
     84  O         -5.2340    0.3120   25.3300 O.2    81  LEU81      -0.2715
     85  CB        -3.1560    1.9430   24.2280 C.3    81  LEU81       0.0311
     86  CG        -2.0850    2.9360   23.7740 C.3    81  LEU81       0.0022
     87  CD1       -2.7340    4.2710   23.4370 C.3    81  LEU81       0.0001
     88  CD2       -1.0470    3.1070   24.8690 C.3    81  LEU81       0.0001
     89  N         -6.2770    2.1820   26.0060 N.am   82  ARG82      -0.1977
     90  CA        -7.5970    1.5880   26.1930 C.3    82  ARG82       0.1597
     91  C         -8.1810    0.7470   25.0620 C.2    82  ARG82       0.2287
     92  O         -8.7920   -0.2900   25.3180 O.2    82  ARG82      -0.2864
     93  CB        -8.6190    2.6790   26.5360 C.3    82  ARG82       0.0334
     94  CG        -8.5580    3.2070   27.9550 C.3    82  ARG82       0.0492
     95  CD        -7.3310    4.0730   28.1930 C.3    82  ARG82       0.2205
     96  NE        -7.3480    4.6700   29.5270 N.pl3  82  ARG82      -0.0865
     97  CZ        -6.3620    5.4060   30.0330 C.cat  82  ARG82       0.5346
     98  NH1       -5.2670    5.6450   29.3170 N.pl3  82  ARG82       0.1354
     99  NH2       -6.4710    5.9030   31.2600 N.pl3  82  ARG82       0.1354
    100  N         -6.9130   -1.3040   22.9070 N.3    84  GLY84      -0.1210
    101  CA        -6.3810   -2.6170   22.5770 C.3    84  GLY84       0.1956
    102  C         -5.6240   -2.5480   21.2630 C.2    84  GLY84       0.2611
    103  O         -5.3320   -1.4580   20.7910 O.2    84  GLY84      -0.2717
    104  N         -5.3140   -3.6900   20.6550 N.am   85  ASP85      -0.1973
    105  CA        -4.5600   -3.6710   19.4060 C.3    85  ASP85       0.1709
    106  C         -5.3900   -3.8410   18.1350 C.2    85  ASP85       0.2293
    107  O         -6.5570   -4.2210   18.1850 O.2    85  ASP85      -0.2864
    108  CB        -3.4430   -4.7210   19.4520 C.3    85  ASP85       0.1436
    109  CG        -3.9690   -6.1330   19.6070 C.2    85  ASP85       0.3671
    110  OD1       -4.6590   -6.6180   18.6900 O.co2  85  ASP85      -0.2456
    111  OD2       -3.6870   -6.7580   20.6500 O.co2  85  ASP85      -0.2456
    112  N         -4.9280   -6.0400   15.7760 N.3    87  PHE87      -0.1227
    113  CA        -5.1500   -7.4310   15.3910 C.3    87  PHE87       0.1736
    114  C         -6.5260   -7.8800   15.8790 C.2    87  PHE87       0.2596
    115  O         -7.2630   -8.5340   15.1610 O.2    87  PHE87      -0.2718
    116  CB        -4.0820   -8.3570   15.9810 C.3    87  PHE87       0.0547
    117  CG        -4.2710   -9.8050   15.6070 C.ar   87  PHE87      -0.0202
    118  CD1       -5.0550  -10.6450   16.3830 C.ar   87  PHE87      -0.0042
    119  CD2       -3.6840  -10.3190   14.4670 C.ar   87  PHE87      -0.0042
    120  CE1       -5.2460  -11.9710   16.0240 C.ar   87  PHE87      -0.0003
    121  CE2       -3.8720  -11.6410   14.1040 C.ar   87  PHE87      -0.0003
    122  CZ        -4.6520  -12.4680   14.8830 C.ar   87  PHE87      -0.0000
    123  N         -6.8590   -7.5200   17.1090 N.am   88  THR88      -0.1953
    124  CA        -8.1440   -7.8810   17.6740 C.3    88  THR88       0.1897
    125  C         -9.2650   -7.2710   16.8450 C.2    88  THR88       0.2313
    126  O        -10.2210   -7.9550   16.4890 O.2    88  THR88      -0.2863
    127  CB        -8.2340   -7.4120   19.1340 C.3    88  THR88       0.1794
    128  OG1       -7.1940   -8.0510   19.8830 O.3    88  THR88      -0.2208
    129  CG2       -9.5950   -7.7670   19.7410 C.3    88  THR88       0.0378
    130  N         -0.7260   -6.7370   15.6580 N.3   128  GLU128     -0.1231
    131  CA        -0.6850   -7.0620   17.0860 C.3   128  GLU128      0.1699
    132  C          0.0390   -6.0050   17.9170 C.2   128  GLU128      0.2592
    133  O         -0.2870   -5.7970   19.0900 O.2   128  GLU128     -0.2718
    134  CB         0.0290   -8.3960   17.3350 C.3   128  GLU128      0.0402
    135  CG        -0.6700   -9.6110   16.8060 C.3   128  GLU128      0.1161
    136  CD        -0.2160   -9.9820   15.4180 C.2   128  GLU128      0.3649
    137  OE1       -0.3340   -9.1380   14.5120 O.co2 128  GLU128     -0.2457
    138  OE2        0.2530  -11.1210   15.2310 O.co2 128  GLU128     -0.2457
    139  N          1.0250   -5.3510   17.3070 N.am  129  ASN129     -0.1974
    140  CA         1.8230   -4.3590   18.0070 C.3   129  ASN129      0.1688
    141  C          1.4350   -2.9140   17.8140 C.2   129  ASN129      0.2292
    142  O          2.1990   -2.0050   18.1550 O.2   129  ASN129     -0.2864
    143  CB         3.3010   -4.5430   17.6650 C.3   129  ASN129      0.1181
    144  CG         3.8770   -5.8040   18.2850 C.2   129  ASN129      0.2629
    145  OD1        3.4510   -6.2240   19.3650 O.2   129  ASN129     -0.2716
    146  ND2        4.8540   -6.4020   17.6190 N.am  129  ASN129     -0.0877
    147  N         -1.4220   -0.3380   18.9360 N.3   131  LEU131     -0.1245
    148  CA        -2.5020   -0.1220   19.8830 C.3   131  LEU131      0.1561
    149  C         -3.3470    1.0960   19.5330 C.2   131  LEU131      0.2260
    150  O         -2.9010    1.9700   18.7940 O.2   131  LEU131     -0.2867
    151  CB        -1.9100    0.0520   21.2790 C.3   131  LEU131      0.0270
    152  CG        -1.2700   -1.2250   21.8110 C.3   131  LEU131      0.0019
    153  CD1       -0.0820   -0.8980   22.6970 C.3   131  LEU131      0.0001
    154  CD2       -2.3290   -2.0200   22.5610 C.3   131  LEU131      0.0001
    155  N          3.9670    0.1690   19.5930 N.3   141  THR141     -0.1203
    156  CA         4.5530   -0.3480   20.8190 C.3   141  THR141      0.1994
    157  C          5.5060   -1.5110   20.5160 C.2   141  THR141      0.2617
    158  O          5.5520   -2.0080   19.3870 O.2   141  THR141     -0.2717
    159  CB         3.4490   -0.8410   21.7590 C.3   141  THR141      0.1784
    160  OG1        3.9980   -1.0970   23.0550 O.3   141  THR141     -0.2211
    161  CG2        2.8390   -2.1170   21.2140 C.3   141  THR141      0.0376
    162  N          6.2660   -1.9350   21.5240 N.am  142  ASP142     -0.1973
    163  CA         7.2150   -3.0440   21.3850 C.3   142  ASP142      0.1709
    164  C          8.2420   -2.7360   20.2910 C.2   142  ASP142      0.2293
    165  O          8.3530   -3.4580   19.2980 O.2   142  ASP142     -0.2864
    166  CB         6.4570   -4.3350   21.0520 C.3   142  ASP142      0.1436
    167  CG         7.1690   -5.5820   21.5500 C.2   142  ASP142      0.3671
    168  OD1        6.6120   -6.6890   21.3800 O.co2 142  ASP142     -0.2456
    169  OD2        8.2770   -5.4560   22.1140 O.co2 142  ASP142     -0.2456
@<TRIPOS>BOND
     1   121   119   ar
     2   121   122   ar
     3   119   117   ar
     4   137   136   ar
     5   122   120   ar
     6   115   114    2
     7   138   136   ar
     8   113   112    1
     9   113   114    1
    10   113   116    1
    11   136   135    1
    12   117   116    1
    13   117   118   ar
    14   130   131    1
    15   114   123   am
    16   120   118   ar
    17   126   125    2
    18   135   134    1
    19   125   124    1
    20   131   134    1
    21   131   132    1
    22   123   124    1
    23   139   132   am
    24   139   140    1
    25   146   144   am
    26   143   140    1
    27   143   144    1
    28   124   127    1
    29   141   140    1
    30   141   142    2
    31   132   133    2
    32   106   107    2
    33   106   105    1
    34   144   145    2
    35   110   109   ar
    36   150   149    2
    37   147   148    1
    38   127   129    1
    39   127   128    1
    40   165   164    2
    41   158   157    2
    42   105   108    1
    43   105   104    1
    44   108   109    1
    45   149   148    1
    46   155   156    1
    47   109   111   ar
    48   148   151    1
    49   164   163    1
    50   157   156    1
    51   157   162   am
    52   104   102   am
    53   103   102    2
    54   156   159    1
    55   166   163    1
    56   166   167    1
    57   161   159    1
    58   102   101    1
    59   151   152    1
    60   168   167   ar
    61   163   162    1
    62   167   169   ar
    63   159   160    1
    64   152   154    1
    65   152   153    1
    66    47    48    1
    67   101   100    1
    68    48    51    1
    69    48    49    1
    70    52    51    1
    71    87    86    1
    72    51    53    1
    73    86    85    1
    74    86    88    1
    75    50    49    2
    76    85    82    1
    77    91    92    2
    78    91    90    1
    79    84    83    2
    80    16    15    2
    81    82    83    1
    82    82    81    1
    83    83    89   am
    84    24    23    1
    85    24    25    2
    86    23    22    1
    87    46    45    1
    88    69    67   ar
    89    89    90    1
    90    90    93    1
    91    15    22   am
    92    15    14    1
    93    93    94    1
    94    81    72   am
    95    67    66    1
    96    67    68   ar
    97    66    63    1
    98    45    44    1
    99    13    14    1
   100    13    11   am
   101     4     3    2
   102    14    17    1
   103    10    11    1
   104    10     9    1
   105    18    17    1
   106    18    19    1
   107    60    59    1
   108    72    73    2
   109    72    71    1
   110    44    43    1
   111    94    95    1
   112    11    12    2
   113    65    64    2
   114    61    59    1
   115    95    96    1
   116     3     9   am
   117     3     2    1
   118    63    64    1
   119    63    62    1
   120    64    70   am
   121    59    58    1
   122    58    55    1
   123    21    19   am
   124    32    30    1
   125    62    56   am
   126    19    20    2
   127    71    70    1
   128    71    74    1
   129    79    77   ar
   130    79    80   ar
   131     5     2    1
   132     5     6    1
   133    43    42    1
   134    98    97    1
   135    77    75   ar
   136    30    31    1
   137    30    27    1
   138    96    97    2
   139     2     1    1
   140    56    55    1
   141    56    57    2
   142    55    54    1
   143    80    78   ar
   144     7     6    1
   145    37    34    1
   146     8     6    1
   147    97    99    1
   148    75    74    1
   149    75    76   ar
   150    42    39    1
   151    78    76   ar
   152    26    27    1
   153    27    28    1
   154    29    28    2
   155    39    38    1
   156    39    40    1
   157    34    33    1
   158    34    35    1
   159    36    35    2
   160    40    41    2
