@<TRIPOS>MOLECULE
tmp/2z7sA00.pdb
 148 139 0 0 0
SMALL
GASTEIGER

@<TRIPOS>ATOM
      1  N         -5.1450   -6.0950   36.5780 N.3    11  LYS11      -0.1245
      2  CA        -5.3570   -7.3480   35.8670 C.3    11  LYS11       0.1561
      3  C         -4.2370   -7.5610   34.8610 C.2    11  LYS11       0.2260
      4  O         -3.5480   -6.6190   34.4830 O.2    11  LYS11      -0.2867
      5  CB        -6.7050   -7.3350   35.1400 C.3    11  LYS11       0.0271
      6  CG        -6.8430   -6.2320   34.1120 C.3    11  LYS11       0.0035
      7  CD        -8.1750   -6.3150   33.3800 C.3    11  LYS11       0.0206
      8  CE        -8.2790   -7.5880   32.5480 C.3    11  LYS11       0.1093
      9  NZ        -9.5740   -7.6650   31.8130 N.3    11  LYS11      -0.1314
     10  N         -3.1280   -8.0860   31.3010 N.3    13  LEU13      -0.1231
     11  CA        -3.6320   -7.8600   29.9560 C.3    13  LEU13       0.1693
     12  C         -3.4050   -9.0630   29.0410 C.2    13  LEU13       0.2593
     13  O         -4.2690   -9.4040   28.2360 O.2    13  LEU13      -0.2718
     14  CB        -2.9840   -6.6030   29.3670 C.3    13  LEU13       0.0284
     15  CG        -3.8290   -5.3270   29.4580 C.3    13  LEU13       0.0019
     16  CD1       -4.7500   -5.3800   30.6670 C.3    13  LEU13       0.0001
     17  CD2       -2.9120   -4.1210   29.5160 C.3    13  LEU13       0.0001
     18  N         -2.2470   -9.7050   29.1800 N.am   14  GLY14      -0.1942
     19  CA        -1.9260  -10.8650   28.3640 C.3    14  GLY14       0.2014
     20  C         -0.4820  -11.3130   28.5440 C.2    14  GLY14       0.2639
     21  O          0.3650  -10.5230   28.9510 O.2    14  GLY14      -0.2714
     22  N         -0.2060  -12.5860   28.2600 N.am   15  GLN15      -0.1963
     23  CA         1.1400  -13.1400   28.3650 C.3    15  GLN15       0.1733
     24  C          1.9810  -12.4230   27.3230 C.2    15  GLN15       0.2616
     25  O          1.4570  -11.9500   26.3160 O.2    15  GLN15      -0.2715
     26  CB         1.1150  -14.6540   28.1040 C.3    15  GLN15       0.0408
     27  CG        -0.2180  -15.2140   27.5480 C.3    15  GLN15       0.0908
     28  CD        -0.5560  -14.6970   26.1590 C.2    15  GLN15       0.2608
     29  OE1        0.2320  -14.8380   25.2240 O.2    15  GLN15      -0.2717
     30  NE2       -1.7340  -14.0970   26.0190 N.am   15  GLN15      -0.0878
     31  N          3.2840  -12.3620   27.5150 N.am   16  GLY16      -0.1955
     32  CA         4.0150  -11.5960   26.5480 C.3    16  GLY16       0.1869
     33  C          5.1100  -12.1830   25.7370 C.2    16  GLY16       0.2309
     34  O          5.8040  -13.1390   26.0780 O.2    16  GLY16      -0.2863
     35  N          2.4240   -8.1910   30.5050 N.3    21  VAL21      -0.1245
     36  CA         1.9230   -6.8250   30.5520 C.3    21  VAL21       0.1561
     37  C          0.7000   -6.7180   31.4400 C.2    21  VAL21       0.2260
     38  O         -0.3430   -7.3020   31.1500 O.2    21  VAL21      -0.2867
     39  CB         1.5510   -6.3180   29.1510 C.3    21  VAL21       0.0252
     40  CG1        0.9970   -4.9170   29.2460 C.3    21  VAL21       0.0019
     41  CG2        2.7680   -6.3560   28.2420 C.3    21  VAL21       0.0019
     42  N          0.1830    0.7550   31.6640 N.3    37  ALA37      -0.1245
     43  CA         0.4360   -0.6230   31.2710 C.3    37  ALA37       0.1562
     44  C          1.8190   -0.9060   31.8340 C.2    37  ALA37       0.2260
     45  O          2.7620   -0.1430   31.6040 O.2    37  ALA37      -0.2867
     46  CB         0.4420   -0.7630   29.7590 C.3    37  ALA37       0.0290
     47  N          5.0730   -3.4400   32.1690 N.3    39  LYS39      -0.1245
     48  CA         5.8180   -4.5200   31.5460 C.3    39  LYS39       0.1561
     49  C          6.9600   -4.9290   32.4750 C.2    39  LYS39       0.2260
     50  O          7.7350   -4.0790   32.9130 O.2    39  LYS39      -0.2867
     51  CB         6.3870   -4.0190   30.2260 C.3    39  LYS39       0.0271
     52  CG         6.4400   -5.0330   29.1190 C.3    39  LYS39       0.0035
     53  CD         6.8870   -4.3300   27.8530 C.3    39  LYS39       0.0206
     54  CE         6.7700   -5.2020   26.6280 C.3    39  LYS39       0.1093
     55  NZ         7.2640   -4.4490   25.4440 N.3    39  LYS39      -0.1314
     56  N          4.2280    4.7670   21.6600 N.3    53  VAL53      -0.1245
     57  CA         3.9030    4.6360   23.0720 C.3    53  VAL53       0.1561
     58  C          4.9470    5.3120   23.9600 C.2    53  VAL53       0.2260
     59  O          6.1520    5.1360   23.7870 O.2    53  VAL53      -0.2867
     60  CB         3.7570    3.1540   23.4730 C.3    53  VAL53       0.0252
     61  CG1        5.0670    2.4230   23.2650 C.3    53  VAL53       0.0019
     62  CG2        3.3160    3.0490   24.9110 C.3    53  VAL53       0.0019
     63  N          4.2780    2.1800   30.9390 N.3    69  LEU69      -0.1231
     64  CA         3.9410    2.8820   29.7080 C.3    69  LEU69       0.1693
     65  C          2.4770    3.2430   29.6330 C.2    69  LEU69       0.2592
     66  O          1.6860    2.8730   30.5080 O.2    69  LEU69      -0.2718
     67  CB         4.2860    2.0030   28.5090 C.3    69  LEU69       0.0284
     68  CG         5.6810    1.3940   28.5590 C.3    69  LEU69       0.0019
     69  CD1        5.5440   -0.1100   28.6350 C.3    69  LEU69       0.0001
     70  CD2        6.4820    1.8010   27.3400 C.3    69  LEU69       0.0001
     71  N          2.1200    3.9590   28.5710 N.am   70  ASP70      -0.1960
     72  CA         0.7340    4.3540   28.3550 C.3    70  ASP70       0.1840
     73  C         -0.0940    3.0900   28.3030 C.2    70  ASP70       0.2622
     74  O          0.3680    2.0580   27.8250 O.2    70  ASP70      -0.2715
     75  CB         0.5020    5.0030   26.9830 C.3    70  ASP70       0.1450
     76  CG         1.1940    6.3310   26.8060 C.2    70  ASP70       0.3671
     77  OD1        1.1120    7.1760   27.7170 O.co2  70  ASP70      -0.2456
     78  OD2        1.7940    6.5300   25.7190 O.co2  70  ASP70      -0.2456
     79  N         -1.3230    3.1900   28.7780 N.am   71  PHE71      -0.1960
     80  CA        -2.2600    2.0940   28.6900 C.3    71  PHE71       0.1771
     81  C         -3.1200    2.5530   27.5100 C.2    71  PHE71       0.2619
     82  O         -3.6830    3.6520   27.5420 O.2    71  PHE71      -0.2715
     83  CB        -3.1220    2.0010   29.9500 C.3    71  PHE71       0.0574
     84  CG        -4.3790    1.2010   29.7550 C.ar   71  PHE71      -0.0200
     85  CD1       -5.6150    1.7370   30.0820 C.ar   71  PHE71      -0.0042
     86  CD2       -4.3300   -0.0770   29.2140 C.ar   71  PHE71      -0.0042
     87  CE1       -6.7810    1.0140   29.8690 C.ar   71  PHE71      -0.0003
     88  CE2       -5.4870   -0.8000   29.0020 C.ar   71  PHE71      -0.0003
     89  CZ        -6.7150   -0.2500   29.3310 C.ar   71  PHE71      -0.0000
     90  N         -3.1950    1.7530   26.4530 N.am   72  LEU72      -0.1963
     91  CA        -4.0030    2.1410   25.3060 C.3    72  LEU72       0.1728
     92  C         -5.3250    1.3970   25.3590 C.2    72  LEU72       0.2616
     93  O         -5.3930    0.2200   25.0410 O.2    72  LEU72      -0.2715
     94  CB        -3.2620    1.8500   23.9970 C.3    72  LEU72       0.0311
     95  CG        -2.2300    2.9050   23.5770 C.3    72  LEU72       0.0022
     96  CD1       -2.9100    4.2640   23.4970 C.3    72  LEU72       0.0001
     97  CD2       -1.0950    2.9560   24.5830 C.3    72  LEU72       0.0001
     98  N         -6.3750    2.1060   25.7570 N.am   73  ARG73      -0.1963
     99  CA        -7.7070    1.5300   25.9030 C.3    73  ARG73       0.1729
    100  C         -8.2610    0.7680   24.7060 C.2    73  ARG73       0.2617
    101  O         -8.8680   -0.2850   24.8700 O.2    73  ARG73      -0.2715
    102  CB        -8.7140    2.6210   26.2950 C.3    73  ARG73       0.0348
    103  CG        -8.6200    3.1190   27.7360 C.3    73  ARG73       0.0492
    104  CD        -7.3890    3.9800   27.9850 C.3    73  ARG73       0.2205
    105  NE        -7.3930    4.5580   29.3300 N.pl3  73  ARG73      -0.0865
    106  CZ        -6.4230    5.3300   29.8160 C.cat  73  ARG73       0.5346
    107  NH1       -5.3630    5.6240   29.0690 N.pl3  73  ARG73       0.1354
    108  NH2       -6.5090    5.8050   31.0520 N.pl3  73  ARG73       0.1354
    109  N         -8.0620    1.3050   23.5100 N.am   74  GLY74      -0.1940
    110  CA        -8.5880    0.6720   22.3100 C.3    74  GLY74       0.2014
    111  C         -8.0960   -0.7140   21.9240 C.2    74  GLY74       0.2639
    112  O         -8.6820   -1.3410   21.0460 O.2    74  GLY74      -0.2714
    113  N         -7.0360   -1.2080   22.5570 N.am   75  GLY75      -0.1939
    114  CA        -6.5410   -2.5200   22.1910 C.3    75  GLY75       0.2014
    115  C         -5.6810   -2.4310   20.9390 C.2    75  GLY75       0.2638
    116  O         -5.2800   -1.3390   20.5530 O.2    75  GLY75      -0.2714
    117  N         -5.4130   -3.5630   20.2930 N.am   76  ASP76      -0.1971
    118  CA        -4.5650   -3.5720   19.1020 C.3    76  ASP76       0.1709
    119  C         -5.3160   -3.7320   17.7800 C.2    76  ASP76       0.2293
    120  O         -6.4840   -4.1150   17.7580 O.2    76  ASP76      -0.2864
    121  CB        -3.5230   -4.6780   19.2320 C.3    76  ASP76       0.1436
    122  CG        -4.1440   -6.0600   19.2440 C.2    76  ASP76       0.3671
    123  OD1       -4.4540   -6.5790   18.1590 O.co2  76  ASP76      -0.2456
    124  OD2       -4.3380   -6.6250   20.3400 O.co2  76  ASP76      -0.2456
    125  N         -0.4830   -6.5650   15.5890 N.3   119  GLU119     -0.1245
    126  CA        -0.4650   -6.8430   17.0180 C.3   119  GLU119      0.1567
    127  C          0.2810   -5.7650   17.7940 C.2   119  GLU119      0.2260
    128  O          0.0130   -5.5490   18.9770 O.2   119  GLU119     -0.2867
    129  CB         0.1950   -8.1890   17.3150 C.3   119  GLU119      0.0388
    130  CG        -0.5060   -9.3830   16.7260 C.3   119  GLU119      0.1160
    131  CD         0.0530   -9.7760   15.3790 C.2   119  GLU119      0.3649
    132  OE1       -0.0260   -8.9650   14.4370 O.co2 119  GLU119     -0.2457
    133  OE2        0.5710  -10.9020   15.2710 O.co2 119  GLU119     -0.2457
    134  N         -1.3210   -0.2660   18.6190 N.3   122  LEU122     -0.1245
    135  CA        -2.3970   -0.0700   19.5700 C.3   122  LEU122      0.1561
    136  C         -3.2450    1.1300   19.1900 C.2   122  LEU122      0.2260
    137  O         -2.8330    1.9730   18.3860 O.2   122  LEU122     -0.2867
    138  CB        -1.8100    0.1490   20.9610 C.3   122  LEU122      0.0270
    139  CG        -0.9030   -0.9950   21.4170 C.3   122  LEU122      0.0019
    140  CD1       -0.1050   -0.5870   22.6420 C.3   122  LEU122      0.0001
    141  CD2       -1.7640   -2.2260   21.6800 C.3   122  LEU122      0.0001
    142  N          4.0880    0.1100   19.5130 N.3   132  THR132     -0.1218
    143  CA         4.6760   -0.4700   20.7090 C.3   132  THR132      0.1862
    144  C          5.6840   -1.5490   20.3000 C.2   132  THR132      0.2287
    145  O          5.7480   -1.9380   19.1310 O.2   132  THR132     -0.2866
    146  CB         3.6090   -1.1370   21.5690 C.3   132  THR132      0.1770
    147  OG1        4.2220   -1.7210   22.7250 O.3   132  THR132     -0.2211
    148  CG2        2.9180   -2.2220   20.7810 C.3   132  THR132      0.0375
@<TRIPOS>BOND
     1   132   131   ar
     2   133   131   ar
     3   131   130    1
     4   125   126    1
     5   130   129    1
     6   126   129    1
     7   126   127    1
     8   120   119    2
     9   119   118    1
    10   127   128    2
    11   123   122   ar
    12   137   136    2
    13   134   135    1
    14   118   121    1
    15   118   117    1
    16   145   144    2
    17   136   135    1
    18   121   122    1
    19   122   124   ar
    20   142   143    1
    21   135   138    1
    22   117   115   am
    23   144   143    1
    24   116   115    2
    25   143   146    1
    26   148   146    1
    27   115   114    1
    28   138   139    1
    29   112   111    2
    30   139   141    1
    31   139   140    1
    32   146   147    1
    33    56    57    1
    34   111   110    1
    35   111   113   am
    36   114   113    1
    37   110   109    1
    38    57    60    1
    39    57    58    1
    40    61    60    1
    41    60    62    1
    42    96    95    1
    43   109   100   am
    44    95    94    1
    45    95    97    1
    46    59    58    2
    47    94    91    1
    48   100   101    2
    49   100    99    1
    50    93    92    2
    51    29    28    2
    52    91    92    1
    53    91    90    1
    54    92    98   am
    55    55    54    1
    56    78    76   ar
    57    33    34    2
    58    33    32    1
    59    98    99    1
    60    99   102    1
    61    30    28   am
    62    28    27    1
    63   102   103    1
    64    25    24    2
    65    90    81   am
    66    32    31    1
    67    54    53    1
    68    76    75    1
    69    76    77   ar
    70    75    72    1
    71    24    31   am
    72    24    23    1
    73    70    68    1
    74    81    82    2
    75    81    80    1
    76    27    26    1
    77   103   104    1
    78    74    73    2
    79    53    52    1
    80   104   105    1
    81    26    23    1
    82    13    12    2
    83    41    39    1
    84    22    23    1
    85    22    20   am
    86    73    72    1
    87    73    79   am
    88    72    71    1
    89    19    20    1
    90    19    18    1
    91    67    68    1
    92    67    64    1
    93    20    21    2
    94    68    69    1
    95    71    65   am
    96    80    79    1
    97    80    83    1
    98    88    86   ar
    99    88    89   ar
   100    12    18   am
   101    12    11    1
   102   107   106    1
   103    52    51    1
   104    39    40    1
   105    39    36    1
   106    86    84   ar
   107   105   106    2
   108    89    87   ar
   109    14    15    1
   110    14    11    1
   111    15    17    1
   112    15    16    1
   113    65    64    1
   114    65    66    2
   115    64    63    1
   116    84    83    1
   117    84    85   ar
   118    46    43    1
   119   106   108    1
   120    87    85   ar
   121    11    10    1
   122    51    48    1
   123    35    36    1
   124    36    37    1
   125    38    37    2
   126    43    42    1
   127    43    44    1
   128    48    47    1
   129    48    49    1
   130    45    44    2
   131     9     8    1
   132    49    50    2
   133     8     7    1
   134     7     6    1
   135     6     5    1
   136     4     3    2
   137     3     2    1
   138     5     2    1
   139     2     1    1
