@<TRIPOS>MOLECULE
tmp/2z7xB00.pdb
 100 92 0 0 0
SMALL
GASTEIGER

@<TRIPOS>ATOM
      1  N        -50.9220   31.3230   23.8960 N.3     4  LEU4       -0.1245
      2  CA       -50.4500   30.5260   22.7760 C.3     4  LEU4        0.1561
      3  C        -51.5720   29.8870   21.9840 C.2     4  LEU4        0.2260
      4  O        -52.5440   29.3930   22.5510 O.2     4  LEU4       -0.2867
      5  CB       -49.4860   29.4510   23.2950 C.3     4  LEU4        0.0270
      6  CG       -48.8930   28.3640   22.3910 C.3     4  LEU4        0.0019
      7  CD1      -49.8990   27.2580   22.1690 C.3     4  LEU4        0.0001
      8  CD2      -48.4350   28.9680   21.0760 C.3     4  LEU4        0.0001
      9  N        -51.8080   27.1130   18.9540 N.3     6  ASP6       -0.1239
     10  CA       -51.1310   26.1580   18.0970 C.3     6  ASP6        0.1674
     11  C        -52.1120   25.4500   17.1800 C.2     6  ASP6        0.2266
     12  O        -52.9310   24.6400   17.6180 O.2     6  ASP6       -0.2867
     13  CB       -50.3720   25.1260   18.9290 C.3     6  ASP6        0.1410
     14  CG       -49.8900   23.9520   18.0940 C.2     6  ASP6        0.3668
     15  OD1      -49.1990   24.1790   17.0780 O.co2   6  ASP6       -0.2456
     16  OD2      -50.2130   22.7970   18.4510 O.co2   6  ASP6       -0.2456
     17  N        -50.8640   23.9490   14.3500 N.3     8  SER8       -0.1202
     18  CA       -49.9320   23.2490   13.4780 C.3     8  SER8        0.2020
     19  C        -50.5000   21.8880   13.0810 C.2     8  SER8        0.2618
     20  O        -51.2930   21.3030   13.8180 O.2     8  SER8       -0.2717
     21  CB       -48.5870   23.0710   14.1880 C.3     8  SER8        0.2103
     22  OG       -48.7260   22.2720   15.3490 O.3     8  SER8       -0.2182
     23  N        -50.1050   21.3980   11.9090 N.am    9  LYS9       -0.1979
     24  CA       -50.5620   20.0980   11.4170 C.3     9  LYS9        0.1596
     25  C        -52.0840   19.9810   11.3630 C.2     9  LYS9        0.2287
     26  O        -52.6390   18.9010   11.5720 O.2     9  LYS9       -0.2864
     27  CB       -50.0140   18.9800   12.3060 C.3     9  LYS9        0.0298
     28  CG       -48.5090   18.9990   12.4910 C.3     9  LYS9        0.0038
     29  CD       -48.1410   18.2210   13.7410 C.3     9  LYS9        0.0206
     30  CE       -46.6640   18.3170   14.0690 C.3     9  LYS9        0.1093
     31  NZ       -46.3840   17.7290   15.4150 N.3     9  LYS9       -0.1314
     32  N        -48.1310   34.1690   20.7950 N.3    25  ILE25      -0.1245
     33  CA       -47.3990   33.1630   20.0470 C.3    25  ILE25       0.1561
     34  C        -48.3810   32.3770   19.1910 C.2    25  ILE25       0.2260
     35  O        -49.3040   31.7400   19.7050 O.2    25  ILE25      -0.2867
     36  CB       -46.6680   32.1810   20.9870 C.3    25  ILE25       0.0252
     37  CG1      -45.6960   32.9380   21.8900 C.3    25  ILE25       0.0019
     38  CG2      -45.8910   31.1650   20.1780 C.3    25  ILE25       0.0019
     39  CD1      -45.1030   32.0840   22.9850 C.3    25  ILE25       0.0001
     40  N        -48.5500   29.4730   16.2210 N.3    27  ASN27      -0.1240
     41  CA       -47.8030   28.4050   15.5720 C.3    27  ASN27       0.1653
     42  C        -48.7150   27.7190   14.5760 C.2    27  ASN27       0.2266
     43  O        -49.5580   26.9070   14.9530 O.2    27  ASN27      -0.2867
     44  CB       -47.3190   27.3900   16.6220 C.3    27  ASN27       0.1155
     45  CG       -46.4290   26.2920   16.0330 C.2    27  ASN27       0.2627
     46  OD1      -46.3490   26.1330   14.8120 O.2    27  ASN27      -0.2716
     47  ND2      -45.7740   25.5320   16.9200 N.am   27  ASN27      -0.0877
     48  N        -47.4060   26.1120   11.8770 N.3    29  SER29      -0.1202
     49  CA       -46.4110   25.3450   11.1520 C.3    29  SER29       0.2020
     50  C        -47.0290   24.0760   10.5690 C.2    29  SER29       0.2618
     51  O        -48.0680   23.6120   11.0370 O.2    29  SER29      -0.2717
     52  CB       -45.2680   24.9860   12.1130 C.3    29  SER29       0.2103
     53  OG       -44.1970   24.3510   11.4420 O.3    29  SER29      -0.2182
     54  N        -46.3860   23.5270    9.5430 N.am   30  GLN30      -0.1979
     55  CA       -46.8440   22.3030    8.8930 C.3    30  GLN30       0.1601
     56  C        -48.2970   22.3120    8.4220 C.2    30  GLN30       0.2287
     57  O        -49.1130   21.4940    8.8530 O.2    30  GLN30      -0.2864
     58  CB       -46.6080   21.1030    9.8190 C.3    30  GLN30       0.0394
     59  CG       -45.1400   20.7990   10.0400 C.3    30  GLN30       0.0908
     60  CD       -44.9010   19.6560   11.0150 C.2    30  GLN30       0.2608
     61  OE1      -45.3340   18.5230   10.7900 O.2    30  GLN30      -0.2717
     62  NE2      -44.2020   19.9500   12.1050 N.am   30  GLN30      -0.0878
     63  N        -44.3340   36.1160   18.6760 N.3    49  ILE49      -0.1245
     64  CA       -43.7410   35.0010   17.9650 C.3    49  ILE49       0.1561
     65  C        -44.7040   34.3870   16.9560 C.2    49  ILE49       0.2260
     66  O        -45.8130   33.9690   17.3030 O.2    49  ILE49      -0.2867
     67  CB       -43.2710   33.9160   18.9660 C.3    49  ILE49       0.0252
     68  CG1      -42.1860   34.5000   19.8750 C.3    49  ILE49       0.0019
     69  CG2      -42.7560   32.6830   18.2080 C.3    49  ILE49       0.0019
     70  CD1      -41.9200   33.6840   21.1320 C.3    49  ILE49       0.0001
     71  N        -44.8570   31.4690   13.8870 N.3    51  ILE51      -0.1245
     72  CA       -44.2090   30.3390   13.2440 C.3    51  ILE51       0.1561
     73  C        -45.0570   29.8340   12.0830 C.2    51  ILE51       0.2260
     74  O        -46.1210   29.2490   12.2900 O.2    51  ILE51      -0.2867
     75  CB       -43.9990   29.1980   14.2580 C.3    51  ILE51       0.0252
     76  CG1      -43.2380   29.7300   15.4690 C.3    51  ILE51       0.0019
     77  CG2      -43.2220   28.0570   13.6190 C.3    51  ILE51       0.0019
     78  CD1      -43.2930   28.8100   16.6590 C.3    51  ILE51       0.0001
     79  N        -42.7090   25.2720    7.2030 N.3    54  HIS54      -0.1241
     80  CA       -43.3210   24.0970    6.5860 C.3    54  HIS54       0.1621
     81  C        -44.7170   24.3850    6.0220 C.2    54  HIS54       0.2264
     82  O        -45.7060   23.7470    6.3960 O.2    54  HIS54      -0.2867
     83  CB       -43.3910   22.9490    7.6010 C.3    54  HIS54       0.0745
     84  CG       -42.0500   22.4080    7.9820 C.ar   54  HIS54       0.0817
     85  ND1      -41.2860   21.6490    7.1240 N.ar   54  HIS54      -0.2268
     86  CD2      -41.3000   22.5800    9.0980 C.ar   54  HIS54       0.1154
     87  CE1      -40.1220   21.3810    7.6900 C.ar   54  HIS54       0.1986
     88  NE2      -40.1050   21.9360    8.8890 N.ar   54  HIS54      -0.2212
     89  N        -39.9150   37.5140   16.6600 N.3    73  TYR73      -0.1241
     90  CA       -39.5230   36.1980   16.1780 C.3    73  TYR73       0.1605
     91  C        -40.4200   35.7880   15.0130 C.2    73  TYR73       0.2264
     92  O        -41.6300   35.6340   15.1770 O.2    73  TYR73      -0.2867
     93  CB       -39.6410   35.1840   17.3260 C.3    73  TYR73       0.0534
     94  CG       -39.1440   33.7830   17.0470 C.ar   73  TYR73      -0.0201
     95  CD1      -37.9820   33.3090   17.6470 C.ar   73  TYR73      -0.0009
     96  CD2      -39.8800   32.9050   16.2550 C.ar   73  TYR73      -0.0009
     97  CE1      -37.5630   31.9850   17.4740 C.ar   73  TYR73       0.0417
     98  CE2      -39.4720   31.5720   16.0700 C.ar   73  TYR73       0.0417
     99  CZ       -38.3150   31.1220   16.6850 C.ar   73  TYR73       0.1957
    100  OH       -37.9230   29.8100   16.5260 O.3    73  TYR73      -0.2866
@<TRIPOS>BOND
     1    81    82    2
     2    81    80    1
     3    80    79    1
     4    80    83    1
     5    85    87   ar
     6    85    84   ar
     7    83    84    1
     8    87    88   ar
     9    84    86   ar
    10    56    57    2
    11    56    55    1
    12    88    86   ar
    13    55    54    1
    14    55    58    1
    15    54    50   am
    16    58    59    1
    17    59    60    1
    18    50    51    2
    19    50    49    1
    20    61    60    2
    21    60    62   am
    22    49    48    1
    23    49    52    1
    24    25    24    1
    25    25    26    2
    26    24    23    1
    27    24    27    1
    28    53    52    1
    29    23    19   am
    30    73    74    2
    31    73    72    1
    32    27    28    1
    33    28    29    1
    34    19    18    1
    35    19    20    2
    36    72    71    1
    37    72    75    1
    38    18    21    1
    39    18    17    1
    40    77    75    1
    41    29    30    1
    42    30    31    1
    43    21    22    1
    44    75    76    1
    45    42    43    2
    46    42    41    1
    47    46    45    2
    48    91    92    2
    49    91    90    1
    50    76    78    1
    51    41    40    1
    52    41    44    1
    53    45    44    1
    54    45    47   am
    55    98    96   ar
    56    98    99   ar
    57    90    89    1
    58    90    93    1
    59    96    94   ar
    60   100    99    1
    61    99    97   ar
    62    65    66    2
    63    65    64    1
    64    94    93    1
    65    94    95   ar
    66    15    14   ar
    67    11    12    2
    68    11    10    1
    69    97    95   ar
    70    64    63    1
    71    64    67    1
    72    14    16   ar
    73    14    13    1
    74    10    13    1
    75    10     9    1
    76    69    67    1
    77    67    68    1
    78    34    35    2
    79    34    33    1
    80    68    70    1
    81    33    32    1
    82    33    36    1
    83    38    36    1
    84    36    37    1
    85     8     6    1
    86    37    39    1
    87     3     4    2
    88     3     2    1
    89     7     6    1
    90     6     5    1
    91     2     5    1
    92     2     1    1
