@<TRIPOS>MOLECULE
tmp/2z7xB03.pdb
 183 178 0 0 0
SMALL
GASTEIGER

@<TRIPOS>ATOM
      1  N        -13.2340    5.6230    3.4270 N.3   234  TRP234     -0.1241
      2  CA       -12.5150    5.5250    4.6820 C.3   234  TRP234      0.1605
      3  C        -11.2640    6.4000    4.6470 C.2   234  TRP234      0.2264
      4  O        -10.9430    7.0510    5.6290 O.2   234  TRP234     -0.2867
      5  CB       -12.1180    4.0760    4.9770 C.3   234  TRP234      0.0550
      6  CG       -13.1700    3.3030    5.7060 C.ar  234  TRP234      0.0003
      7  CD1      -14.0260    2.3820    5.1750 C.ar  234  TRP234      0.0946
      8  CD2      -13.4700    3.3710    7.1110 C.ar  234  TRP234      0.0152
      9  NE1      -14.8340    1.8670    6.1610 N.ar  234  TRP234     -0.2442
     10  CE2      -14.5140    2.4520    7.3580 C.ar  234  TRP234      0.0810
     11  CE3      -12.9490    4.1130    8.1860 C.ar  234  TRP234      0.0012
     12  CZ2      -15.0590    2.2520    8.6350 C.ar  234  TRP234      0.0191
     13  CZ3      -13.4900    3.9140    9.4610 C.ar  234  TRP234      0.0001
     14  CH2      -14.5350    2.9860    9.6720 C.ar  234  TRP234      0.0015
     15  N        -12.2230   10.1060    5.0230 N.3   237  PHE237     -0.1241
     16  CA       -12.6960   10.3440    6.3750 C.3   237  PHE237      0.1605
     17  C        -11.5110   10.5490    7.3200 C.2   237  PHE237      0.2264
     18  O        -11.5140   11.4610    8.1600 O.2   237  PHE237     -0.2867
     19  CB       -13.5290    9.1630    6.8650 C.3   237  PHE237      0.0534
     20  CG       -14.0910    9.3560    8.2490 C.ar  237  PHE237     -0.0203
     21  CD1      -15.0180   10.3590    8.4990 C.ar  237  PHE237     -0.0042
     22  CD2      -13.7100    8.5210    9.2900 C.ar  237  PHE237     -0.0042
     23  CE1      -15.5660   10.5290    9.7720 C.ar  237  PHE237     -0.0003
     24  CE2      -14.2540    8.6800   10.5740 C.ar  237  PHE237     -0.0003
     25  CZ       -15.1810    9.6850   10.8080 C.ar  237  PHE237     -0.0000
     26  N        -19.6670    5.4230    5.1600 N.3   259  LEU259     -0.1245
     27  CA       -18.3010    5.1200    4.7460 C.3   259  LEU259      0.1561
     28  C        -18.2300    3.9350    3.7970 C.2   259  LEU259      0.2260
     29  O        -19.0170    2.9970    3.8960 O.2   259  LEU259     -0.2867
     30  CB       -17.4400    4.8330    5.9820 C.3   259  LEU259      0.0270
     31  CG       -16.5220    5.9100    6.5780 C.3   259  LEU259      0.0019
     32  CD1      -16.9750    7.2810    6.1730 C.3   259  LEU259      0.0001
     33  CD2      -16.4790    5.7750    8.1000 C.3   259  LEU259      0.0001
     34  N        -18.4250   11.4720   17.6720 N.3   280  ILE280     -0.1245
     35  CA       -18.8050   10.9160   16.3910 C.3   280  ILE280      0.1561
     36  C        -20.0780   10.1310   16.6570 C.2   280  ILE280      0.2260
     37  O        -20.0900    9.2460   17.5140 O.2   280  ILE280     -0.2867
     38  CB       -17.7280    9.9350   15.8680 C.3   280  ILE280      0.0252
     39  CG1      -16.3780   10.6460   15.7880 C.3   280  ILE280      0.0019
     40  CG2      -18.1340    9.3790   14.5020 C.3   280  ILE280      0.0019
     41  CD1      -15.2150    9.7360   15.4830 C.3   280  ILE280      0.0001
     42  N        -22.7720    6.2330   12.4130 N.3   283  VAL283     -0.1245
     43  CA       -21.8930    5.9270   11.3030 C.3   283  VAL283      0.1561
     44  C        -22.3030    4.5890   10.7330 C.2   283  VAL283      0.2260
     45  O        -22.5510    3.6680   11.4770 O.2   283  VAL283     -0.2867
     46  CB       -20.4210    5.8100   11.7640 C.3   283  VAL283      0.0252
     47  CG1      -19.5460    5.4140   10.5830 C.3   283  VAL283      0.0019
     48  CG2      -19.9430    7.1390   12.3540 C.3   283  VAL283      0.0019
     49  N        -21.0630    1.7640    7.8120 N.3   285  SER285     -0.1202
     50  CA       -19.9710    1.3990    6.9270 C.3   285  SER285      0.2020
     51  C        -20.3070    0.1880    6.0780 C.2   285  SER285      0.2619
     52  O        -20.9950   -0.7320    6.5220 O.2   285  SER285     -0.2717
     53  CB       -18.7090    1.0710    7.7280 C.3   285  SER285      0.2103
     54  OG       -17.6800    0.6110    6.8620 O.3   285  SER285     -0.2182
     55  N        -19.8160    0.1920    4.8490 N.am  286  ASP286     -0.1959
     56  CA       -20.0340   -0.9430    3.9770 C.3   286  ASP286      0.1840
     57  C        -19.0650   -2.0150    4.4810 C.2   286  ASP286      0.2622
     58  O        -18.1710   -1.7420    5.2830 O.2   286  ASP286     -0.2715
     59  CB       -19.6910   -0.5680    2.5380 C.3   286  ASP286      0.1450
     60  CG       -20.0330   -1.6640    1.5460 C.2   286  ASP286      0.3671
     61  OD1      -19.6050   -1.5300    0.3760 O.co2 286  ASP286     -0.2456
     62  OD2      -20.7300   -2.6480    1.9250 O.co2 286  ASP286     -0.2456
     63  N        -19.2570   -3.2410    4.0390 N.am  287  VAL287     -0.1963
     64  CA       -18.3630   -4.3190    4.4190 C.3   287  VAL287      0.1727
     65  C        -16.9690   -3.9750    3.8630 C.2   287  VAL287      0.2616
     66  O        -16.8620   -3.1820    2.9450 O.2   287  VAL287     -0.2715
     67  CB       -18.8970   -5.6290    3.8170 C.3   287  VAL287      0.0290
     68  CG1      -17.7830   -6.6450    3.6530 C.3   287  VAL287      0.0023
     69  CG2      -19.9910   -6.1790    4.7160 C.3   287  VAL287      0.0023
     70  N        -15.9040   -4.5360    4.4310 N.am  288  PHE288     -0.1960
     71  CA       -14.5590   -4.2730    3.9240 C.3   288  PHE288      0.1771
     72  C        -13.6150   -5.4280    4.2190 C.2   288  PHE288      0.2620
     73  O        -13.9460   -6.3100    5.0180 O.2   288  PHE288     -0.2715
     74  CB       -13.9930   -2.9600    4.4830 C.3   288  PHE288      0.0574
     75  CG       -14.0540   -2.8550    5.9710 C.ar  288  PHE288     -0.0200
     76  CD1      -13.0950   -3.4620    6.7660 C.ar  288  PHE288     -0.0042
     77  CD2      -15.0880   -2.1560    6.5790 C.ar  288  PHE288     -0.0042
     78  CE1      -13.1690   -3.3720    8.1580 C.ar  288  PHE288     -0.0003
     79  CE2      -15.1750   -2.0600    7.9680 C.ar  288  PHE288     -0.0003
     80  CZ       -14.2210   -2.6650    8.7560 C.ar  288  PHE288     -0.0000
     81  N        -12.4440   -5.4110    3.5770 N.am  289  GLY289     -0.1940
     82  CA       -11.4920   -6.4930    3.7310 C.3   289  GLY289      0.2014
     83  C        -10.2180   -6.2110    4.4900 C.2   289  GLY289      0.2638
     84  O         -9.4310   -7.1220    4.7270 O.2   289  GLY289     -0.2714
     85  N        -10.0020   -4.9590    4.8730 N.am  290  PHE290     -0.1973
     86  CA        -8.8030   -4.6100    5.6260 C.3   290  PHE290      0.1639
     87  C         -9.0570   -4.9120    7.1090 C.2   290  PHE290      0.2290
     88  O        -10.1970   -4.9070    7.5570 O.2   290  PHE290     -0.2864
     89  CB        -8.4700   -3.1320    5.4130 C.3   290  PHE290      0.0560
     90  CG        -9.5530   -2.2030    5.8420 C.ar  290  PHE290     -0.0200
     91  CD1       -9.6750   -1.8260    7.1860 C.ar  290  PHE290     -0.0042
     92  CD2      -10.4690   -1.7100    4.9170 C.ar  290  PHE290     -0.0042
     93  CE1      -10.6940   -0.9740    7.5970 C.ar  290  PHE290     -0.0003
     94  CE2      -11.5000   -0.8520    5.3210 C.ar  290  PHE290     -0.0003
     95  CZ       -11.6100   -0.4850    6.6630 C.ar  290  PHE290     -0.0000
     96  N         -9.8650   -4.7080   10.8830 N.3   292  GLN292     -0.1245
     97  CA       -10.6250   -3.7230   11.6580 C.3   292  GLN292      0.1566
     98  C         -9.7330   -2.9080   12.5890 C.2   292  GLN292      0.2260
     99  O        -10.0580   -1.7670   12.9330 O.2   292  GLN292     -0.2867
    100  CB       -11.7180   -4.3980   12.4950 C.3   292  GLN292      0.0367
    101  CG       -12.8190   -5.0930   11.7020 C.3   292  GLN292      0.0905
    102  CD       -13.9100   -5.6230   12.6090 C.2   292  GLN292      0.2608
    103  OE1      -14.1810   -5.0490   13.6620 O.2   292  GLN292     -0.2717
    104  NE2      -14.5590   -6.7080   12.2000 N.am  292  GLN292     -0.0878
    105  N         -8.8230    0.8110   11.9960 N.3   295  ILE295     -0.1231
    106  CA        -9.7350    1.8380   12.4870 C.3   295  ILE295      0.1692
    107  C         -9.5220    2.0950   13.9770 C.2   295  ILE295      0.2592
    108  O         -9.3000    3.2250   14.4060 O.2   295  ILE295     -0.2718
    109  CB       -11.2060    1.4080   12.3170 C.3   295  ILE295      0.0266
    110  CG1      -11.4940    1.0540   10.8630 C.3   295  ILE295      0.0019
    111  CG2      -12.1370    2.5110   12.7860 C.3   295  ILE295      0.0020
    112  CD1      -12.7440    0.2060   10.7100 C.3   295  ILE295      0.0001
    113  N         -9.6020    1.0290   14.7610 N.am  296  TYR296     -0.1976
    114  CA        -9.4690    1.1190   16.2120 C.3   296  TYR296      0.1639
    115  C         -8.1540    1.7070   16.6990 C.2   296  TYR296      0.2290
    116  O         -8.1300    2.4160   17.7110 O.2   296  TYR296     -0.2864
    117  CB        -9.6930   -0.2660   16.8430 C.3   296  TYR296      0.0560
    118  CG       -10.9870   -0.9100   16.3860 C.ar  296  TYR296     -0.0198
    119  CD1      -11.1050   -2.2970   16.3030 C.ar  296  TYR296     -0.0009
    120  CD2      -12.0850   -0.1300   16.0110 C.ar  296  TYR296     -0.0009
    121  CE1      -12.2800   -2.9000   15.8540 C.ar  296  TYR296      0.0417
    122  CE2      -13.2710   -0.7250   15.5570 C.ar  296  TYR296      0.0417
    123  CZ       -13.3550   -2.1160   15.4820 C.ar  296  TYR296      0.1957
    124  OH       -14.5140   -2.7130   15.0420 O.3   296  TYR296     -0.2866
    125  N         -8.2480    5.6540   16.5680 N.3   299  PHE299     -0.1241
    126  CA        -9.0020    6.2770   17.6450 C.3   299  PHE299      0.1605
    127  C         -8.4750    5.9880   19.0550 C.2   299  PHE299      0.2264
    128  O         -8.4920    6.8730   19.9250 O.2   299  PHE299     -0.2867
    129  CB       -10.4830    5.8960   17.5170 C.3   299  PHE299      0.0534
    130  CG       -11.1070    6.3810   16.2380 C.ar  299  PHE299     -0.0203
    131  CD1      -11.1480    5.5660   15.1180 C.ar  299  PHE299     -0.0042
    132  CD2      -11.5780    7.6900   16.1260 C.ar  299  PHE299     -0.0042
    133  CE1      -11.6420    6.0420   13.9080 C.ar  299  PHE299     -0.0003
    134  CE2      -12.0750    8.1780   14.9150 C.ar  299  PHE299     -0.0003
    135  CZ       -12.1070    7.3580   13.8060 C.ar  299  PHE299     -0.0000
    136  N        -18.2090    8.0100   20.8970 N.3   309  VAL309     -0.1245
    137  CA       -18.5180    7.3030   19.6540 C.3   309  VAL309      0.1561
    138  C        -19.7840    6.5290   19.9490 C.2   309  VAL309      0.2260
    139  O        -19.7610    5.6110   20.7810 O.2   309  VAL309     -0.2867
    140  CB       -17.4280    6.2800   19.2450 C.3   309  VAL309      0.0252
    141  CG1      -17.8410    5.5780   17.9390 C.3   309  VAL309      0.0019
    142  CG2      -16.1010    6.9740   19.0460 C.3   309  VAL309      0.0019
    143  N        -22.7080    3.3130   16.0430 N.3   312  THR312     -0.1203
    144  CA       -21.8280    2.7160   15.0270 C.3   312  THR312      0.1994
    145  C        -21.7890    1.2080   15.2880 C.2   312  THR312      0.2618
    146  O        -22.2600    0.7530   16.3360 O.2   312  THR312     -0.2717
    147  CB       -20.3480    3.2630   15.0850 C.3   312  THR312      0.1784
    148  OG1      -19.5690    2.5060   16.0300 O.3   312  THR312     -0.2211
    149  CG2      -20.3320    4.7430   15.4780 C.3   312  THR312      0.0376
    150  N        -21.2260    0.4350   14.3600 N.am  313  ARG313     -0.1965
    151  CA       -21.1680   -1.0200   14.5460 C.3   313  ARG313      0.1729
    152  C        -19.8130   -1.5080   15.0490 C.2   313  ARG313      0.2616
    153  O        -19.4680   -2.6740   14.9110 O.2   313  ARG313     -0.2715
    154  CB       -21.5410   -1.7590   13.2570 C.3   313  ARG313      0.0348
    155  CG       -22.8730   -1.3210   12.6540 C.3   313  ARG313      0.0492
    156  CD       -24.0300   -1.3050   13.6490 C.3   313  ARG313      0.2205
    157  NE       -25.3070   -1.2840   12.9440 N.pl3 313  ARG313     -0.0865
    158  CZ       -26.5070   -1.2770   13.5230 C.cat 313  ARG313      0.5346
    159  NH1      -26.6210   -1.2790   14.8450 N.pl3 313  ARG313      0.1354
    160  NH2      -27.6000   -1.3090   12.7740 N.pl3 313  ARG313      0.1354
    161  N        -19.0550   -0.5940   15.6380 N.am  314  MET314     -0.1963
    162  CA       -17.7600   -0.9060   16.2080 C.3   314  MET314      0.1736
    163  C        -17.9430   -2.0790   17.1740 C.2   314  MET314      0.2616
    164  O        -18.7290   -2.0030   18.1120 O.2   314  MET314     -0.2715
    165  CB       -17.2540    0.3270   16.9440 C.3   314  MET314      0.0427
    166  CG       -16.1030    0.0940   17.8660 C.3   314  MET314      0.0599
    167  SD       -15.5990    1.6550   18.6230 S.3   314  MET314     -0.1393
    168  CE       -16.8620    1.8710   19.9000 C.3   314  MET314      0.0692
    169  N        -17.2090   -3.1620   16.9520 N.am  315  VAL315     -0.1977
    170  CA       -17.3530   -4.3430   17.8030 C.3   315  VAL315      0.1596
    171  C        -16.2500   -4.4760   18.8370 C.2   315  VAL315      0.2287
    172  O        -16.2830   -5.3760   19.6750 O.2   315  VAL315     -0.2864
    173  CB       -17.3840   -5.6390   16.9530 C.3   315  VAL315      0.0276
    174  CG1      -18.4900   -5.5560   15.9230 C.3   315  VAL315      0.0022
    175  CG2      -16.0490   -5.8600   16.2850 C.3   315  VAL315      0.0022
    176  N        -12.5870   -2.1490   20.7990 N.3   317  MET317     -0.1245
    177  CA       -11.7280   -0.9830   20.9340 C.3   317  MET317      0.1570
    178  C        -10.4600   -1.4520   21.6330 C.2   317  MET317      0.2261
    179  O        -10.5130   -2.1900   22.6200 O.2   317  MET317     -0.2867
    180  CB       -12.4000    0.1560   21.7120 C.3   317  MET317      0.0387
    181  CG       -11.5340    1.4250   21.7630 C.3   317  MET317      0.0595
    182  SD       -10.8350    1.9620   20.1350 S.3   317  MET317     -0.1393
    183  CE       -12.2930    2.3500   19.2690 C.3   317  MET317      0.0692
@<TRIPOS>BOND
     1    61    60   ar
     2    60    62   ar
     3    60    59    1
     4    59    56    1
     5    66    65    2
     6     1     2    1
     7    81    82    1
     8    81    72   am
     9    68    67    1
    10    82    83    1
    11    28    29    2
    12    28    27    1
    13    67    64    1
    14    67    69    1
    15    65    64    1
    16    65    70   am
    17    71    72    1
    18    71    70    1
    19    71    74    1
    20    56    57    1
    21    56    55    1
    22    63    64    1
    23    63    57   am
    24    72    73    2
    25    57    58    2
    26    74    75    1
    27    83    84    2
    28    83    85   am
    29     3     2    1
    30     3     4    2
    31     2     5    1
    32    27    26    1
    33    27    30    1
    34    55    51   am
    35    85    86    1
    36    92    94   ar
    37    92    90   ar
    38     5     6    1
    39    15    16    1
    40     7     6   ar
    41     7     9   ar
    42    94    95   ar
    43    89    86    1
    44    89    90    1
    45    86    87    1
    46     6     8   ar
    47    90    91   ar
    48    75    77   ar
    49    75    76   ar
    50    30    31    1
    51    51    52    2
    52    51    50    1
    53     9    10   ar
    54    32    31    1
    55    16    19    1
    56    16    17    1
    57    31    33    1
    58    77    79   ar
    59    95    93   ar
    60    76    78   ar
    61    54    53    1
    62    19    20    1
    63    50    53    1
    64    50    49    1
    65    87    88    2
    66     8    10   ar
    67     8    11   ar
    68    91    93   ar
    69    17    18    2
    70    10    12   ar
    71    79    80   ar
    72    78    80   ar
    73    11    13   ar
    74    20    21   ar
    75    20    22   ar
    76    21    23   ar
    77    12    14   ar
    78    22    24   ar
    79    13    14   ar
    80    23    25   ar
    81    24    25   ar
    82    47    46    1
    83   112   110    1
    84    44    43    1
    85    44    45    2
    86   110   109    1
    87    96    97    1
    88    43    46    1
    89    43    42    1
    90    97   100    1
    91    97    98    1
    92   101   100    1
    93   101   102    1
    94    46    48    1
    95   105   106    1
    96   104   102   am
    97   109   106    1
    98   109   111    1
    99   106   107    1
   100    98    99    2
   101   102   103    2
   102   155   154    1
   103   155   156    1
   104   160   158    1
   105   157   158    2
   106   157   156    1
   107   154   151    1
   108   158   159    1
   109   135   133   ar
   110   135   134   ar
   111   133   131   ar
   112   107   108    2
   113   107   113   am
   114   150   151    1
   115   150   145   am
   116    40    38    1
   117   151   152    1
   118   113   114    1
   119   153   152    2
   120   134   132   ar
   121   144   147    1
   122   144   145    1
   123   144   143    1
   124   124   123    1
   125   152   161   am
   126   147   149    1
   127   147   148    1
   128   131   130   ar
   129   145   146    2
   130   123   122   ar
   131   123   121   ar
   132    41    39    1
   133   122   120   ar
   134   161   162    1
   135    39    38    1
   136   121   119   ar
   137    38    35    1
   138   174   173    1
   139   120   118   ar
   140   132   130   ar
   141   162   165    1
   142   162   163    1
   143   114   115    1
   144   114   117    1
   145   130   129    1
   146   175   173    1
   147   119   118   ar
   148   118   117    1
   149    35    36    1
   150    35    34    1
   151   125   126    1
   152    36    37    2
   153   115   116    2
   154   165   166    1
   155   169   163   am
   156   169   170    1
   157   173   170    1
   158   163   164    2
   159   129   126    1
   160   126   127    1
   161   170   171    1
   162   166   167    1
   163   141   140    1
   164   167   168    1
   165   171   172    2
   166   142   140    1
   167   127   128    2
   168   140   137    1
   169   183   182    1
   170   137   138    1
   171   137   136    1
   172   138   139    2
   173   182   181    1
   174   176   177    1
   175   177   178    1
   176   177   180    1
   177   178   179    2
   178   180   181    1
