@<TRIPOS>MOLECULE
tmp/2z7xB02.pdb
 100 92 0 0 0
SMALL
GASTEIGER

@<TRIPOS>ATOM
      1  N        -23.0230    1.7430   27.8870 N.3   356  GLN356     -0.1245
      2  CA       -24.4410    1.4720   27.7780 C.3   356  GLN356      0.1566
      3  C        -24.8140    1.0760   26.3390 C.2   356  GLN356      0.2260
      4  O        -24.2720    1.6060   25.3640 O.2   356  GLN356     -0.2867
      5  CB       -25.1880    2.7370   28.1740 C.3   356  GLN356      0.0367
      6  CG       -26.6800    2.7100   27.9890 C.3   356  GLN356      0.0905
      7  CD       -27.2980    4.0630   28.2850 C.2   356  GLN356      0.2608
      8  OE1      -26.9630    4.7070   29.2850 O.2   356  GLN356     -0.2717
      9  NE2      -28.2010    4.5000   27.4270 N.am  356  GLN356     -0.0878
     10  N        -20.7650    2.9510   33.5260 N.3   380  ASP380     -0.1239
     11  CA       -22.1260    2.6300   33.1360 C.3   380  ASP380      0.1674
     12  C        -22.1470    1.4510   32.1430 C.2   380  ASP380      0.2266
     13  O        -21.6230    1.5530   31.0330 O.2   380  ASP380     -0.2867
     14  CB       -22.7850    3.8670   32.5010 C.3   380  ASP380      0.1410
     15  CG       -24.2050    3.5980   32.0220 C.2   380  ASP380      0.3668
     16  OD1      -24.7640    4.4570   31.3110 O.co2 380  ASP380     -0.2456
     17  OD2      -24.7710    2.5330   32.3520 O.co2 380  ASP380     -0.2456
     18  N        -25.1690   -0.2780   31.6900 N.3   382  SER382     -0.1202
     19  CA       -26.5920   -0.5370   31.6370 C.3   382  SER382      0.2020
     20  C        -27.0200   -0.8780   30.2140 C.2   382  SER382      0.2618
     21  O        -26.2970   -0.6010   29.2510 O.2   382  SER382     -0.2717
     22  CB       -27.3760    0.6790   32.1450 C.3   382  SER382      0.2103
     23  OG       -27.1810    1.8030   31.3140 O.3   382  SER382     -0.2182
     24  N        -28.1970   -1.4940   30.1050 N.am  383  GLN383     -0.1979
     25  CA       -28.7830   -1.9040   28.8370 C.3   383  GLN383      0.1601
     26  C        -27.8750   -2.7960   28.0070 C.2   383  GLN383      0.2287
     27  O        -27.5860   -2.5260   26.8330 O.2   383  GLN383     -0.2864
     28  CB       -29.2260   -0.6870   28.0250 C.3   383  GLN383      0.0394
     29  CG       -30.2500    0.1560   28.7640 C.3   383  GLN383      0.0908
     30  CD       -30.8620    1.2360   27.9060 C.2   383  GLN383      0.2608
     31  OE1      -31.5850    0.9520   26.9640 O.2   383  GLN383     -0.2717
     32  NE2      -30.5740    2.4840   28.2310 N.am  383  GLN383     -0.0878
     33  N        -19.4710    5.3730   41.3840 N.3   403  SER403     -0.1202
     34  CA       -20.8050    5.2670   40.8220 C.3   403  SER403      0.2020
     35  C        -20.7900    4.1610   39.7840 C.2   403  SER403      0.2619
     36  O        -19.9920    4.1990   38.8400 O.2   403  SER403     -0.2717
     37  CB       -21.2190    6.5870   40.1700 C.3   403  SER403      0.2103
     38  OG       -22.5250    6.4820   39.6140 O.3   403  SER403     -0.2182
     39  N        -21.6810    3.1910   39.9600 N.am  404  LEU404     -0.1965
     40  CA       -21.7740    2.0420   39.0710 C.3   404  LEU404      0.1728
     41  C        -23.2220    1.8050   38.6190 C.2   404  LEU404      0.2616
     42  O        -24.1110    1.5640   39.4350 O.2   404  LEU404     -0.2715
     43  CB       -21.2190    0.8180   39.8080 C.3   404  LEU404      0.0311
     44  CG       -21.0280   -0.5150   39.0790 C.3   404  LEU404      0.0022
     45  CD1      -20.1900   -0.3110   37.8290 C.3   404  LEU404      0.0001
     46  CD2      -20.3380   -1.5060   40.0260 C.3   404  LEU404      0.0001
     47  N        -23.4550    1.8850   37.3130 N.am  405  ASN405     -0.1972
     48  CA       -24.7850    1.7010   36.7550 C.3   405  ASN405      0.1688
     49  C        -24.8610    0.3720   36.0130 C.2   405  ASN405      0.2292
     50  O        -24.2170    0.1950   34.9690 O.2   405  ASN405     -0.2864
     51  CB       -25.0930    2.8500   35.8010 C.3   405  ASN405      0.1181
     52  CG       -26.5510    2.9120   35.4130 C.2   405  ASN405      0.2629
     53  OD1      -27.2710    1.9120   35.5020 O.2   405  ASN405     -0.2716
     54  ND2      -26.9790    4.0890   34.9600 N.am  405  ASN405     -0.0877
     55  N        -28.0570   -1.1990   35.5620 N.3   407  SER407     -0.1202
     56  CA       -29.4650   -1.3900   35.3280 C.3   407  SER407      0.2020
     57  C        -29.7200   -1.9360   33.9370 C.2   407  SER407      0.2619
     58  O        -28.9190   -1.7440   33.0150 O.2   407  SER407     -0.2717
     59  CB       -30.2340   -0.0790   35.5400 C.3   407  SER407      0.2103
     60  OG       -29.7460    0.9470   34.6990 O.3   407  SER407     -0.2182
     61  N        -30.8520   -2.6270   33.8080 N.am  408  SER408     -0.1951
     62  CA       -31.2720   -3.2380   32.5610 C.3   408  SER408      0.1924
     63  C        -30.2890   -4.2890   32.0660 C.2   408  SER408      0.2314
     64  O        -29.7360   -4.1730   30.9770 O.2   408  SER408     -0.2863
     65  CB       -31.4970   -2.1750   31.4760 C.3   408  SER408      0.2116
     66  OG       -32.5750   -1.3170   31.8190 O.3   408  SER408     -0.2180
     67  N        -22.9440    5.2460   44.5660 N.3   425  VAL425     -0.1245
     68  CA       -24.1520    5.1670   43.7610 C.3   425  VAL425      0.1561
     69  C        -24.1700    3.8140   43.0580 C.2   425  VAL425      0.2260
     70  O        -23.2310    3.4590   42.3520 O.2   425  VAL425     -0.2867
     71  CB       -24.2030    6.3110   42.7210 C.3   425  VAL425      0.0252
     72  CG1      -25.4290    6.1670   41.8280 C.3   425  VAL425      0.0019
     73  CG2      -24.2480    7.6460   43.4390 C.3   425  VAL425      0.0019
     74  N        -26.8810    1.6380   40.7970 N.3   427  ASP427     -0.1239
     75  CA       -28.1820    1.5250   40.1560 C.3   427  ASP427      0.1674
     76  C        -28.3420    0.1030   39.6290 C.2   427  ASP427      0.2266
     77  O        -27.6000   -0.3220   38.7490 O.2   427  ASP427     -0.2867
     78  CB       -28.2930    2.5230   39.0110 C.3   427  ASP427      0.1410
     79  CG       -29.6900    2.6050   38.4520 C.2   427  ASP427      0.3668
     80  OD1      -30.4840    1.6490   38.6610 O.co2 427  ASP427     -0.2456
     81  OD2      -29.9950    3.6180   37.7880 O.co2 427  ASP427     -0.2456
     82  N        -31.6880   -1.2180   38.8970 N.3   429  HIS429     -0.1241
     83  CA       -33.0430   -1.4490   38.4290 C.3   429  HIS429      0.1621
     84  C        -33.0990   -2.2760   37.1470 C.2   429  HIS429      0.2264
     85  O        -32.1690   -2.2810   36.3270 O.2   429  HIS429     -0.2867
     86  CB       -33.8360   -0.1320   38.2820 C.3   429  HIS429      0.0745
     87  CG       -33.5650    0.6390   37.0260 C.ar  429  HIS429      0.0817
     88  ND1      -32.6800    1.6990   36.9810 N.ar  429  HIS429     -0.2268
     89  CD2      -34.1260    0.5660   35.7960 C.ar  429  HIS429      0.1154
     90  CE1      -32.7130    2.2460   35.7780 C.ar  429  HIS429      0.1986
     91  NE2      -33.5820    1.5790   35.0380 N.ar  429  HIS429     -0.2212
     92  N        -26.8160    6.1150   47.4090 N.3   448  GLU448     -0.1245
     93  CA       -27.9850    5.9070   46.5670 C.3   448  GLU448      0.1567
     94  C        -28.0310    4.4810   46.0500 C.2   448  GLU448      0.2260
     95  O        -27.0850    4.0080   45.4150 O.2   448  GLU448     -0.2867
     96  CB       -27.9690    6.8850   45.3930 C.3   448  GLU448      0.0388
     97  CG       -27.5610    8.2770   45.8060 C.3   448  GLU448      0.1160
     98  CD       -28.0200    9.3470   44.8410 C.2   448  GLU448      0.3649
     99  OE1      -27.6760   10.5260   45.0840 O.co2 448  GLU448     -0.2457
    100  OE2      -28.7240    9.0230   43.8530 O.co2 448  GLU448     -0.2457
@<TRIPOS>BOND
     1     4     3    2
     2     3     2    1
     3    27    26    2
     4    31    30    2
     5     9     7   am
     6     2     1    1
     7     2     5    1
     8    30    32   am
     9    30    29    1
    10     6     5    1
    11     6     7    1
    12    26    25    1
    13    28    29    1
    14    28    25    1
    15     7     8    2
    16    25    24    1
    17    21    20    2
    18    24    20   am
    19    20    19    1
    20    64    63    2
    21    13    12    2
    22    16    15   ar
    23    23    22    1
    24    65    66    1
    25    65    62    1
    26    19    18    1
    27    19    22    1
    28    15    17   ar
    29    15    14    1
    30    63    62    1
    31    12    11    1
    32    14    11    1
    33    62    61    1
    34    58    57    2
    35    11    10    1
    36    61    57   am
    37    57    56    1
    38    60    59    1
    39    54    52   am
    40    50    49    2
    41    91    90   ar
    42    91    89   ar
    43    56    59    1
    44    56    55    1
    45    52    53    2
    46    52    51    1
    47    90    88   ar
    48    89    87   ar
    49    51    48    1
    50    49    48    1
    51    85    84    2
    52    48    47    1
    53    88    87   ar
    54    87    86    1
    55    84    83    1
    56    47    41   am
    57    81    79   ar
    58    45    44    1
    59    86    83    1
    60    83    82    1
    61    79    80   ar
    62    79    78    1
    63    41    40    1
    64    41    42    2
    65    77    76    2
    66    36    35    2
    67    78    75    1
    68    40    43    1
    69    40    39    1
    70    44    43    1
    71    44    46    1
    72    38    37    1
    73    76    75    1
    74    35    39   am
    75    35    34    1
    76    75    74    1
    77    37    34    1
    78    34    33    1
    79    72    71    1
    80    70    69    2
    81    71    73    1
    82    71    68    1
    83    69    68    1
    84    68    67    1
    85   100    98   ar
    86    98    99   ar
    87    98    97    1
    88    96    97    1
    89    96    93    1
    90    95    94    2
    91    94    93    1
    92    93    92    1
