@<TRIPOS>MOLECULE
tmp/2z7xA02.pdb
 103 95 0 0 0
SMALL
GASTEIGER

@<TRIPOS>ATOM
      1  N        -31.8810  -15.4340   17.0530 N.3   369  ARG369     -0.1245
      2  CA       -32.4510  -15.0680   18.3390 C.3   369  ARG369      0.1563
      3  C        -31.8540  -13.8670   19.0900 C.2   369  ARG369      0.2260
      4  O        -32.4060  -12.7680   19.0670 O.2   369  ARG369     -0.2867
      5  CB       -32.4720  -16.3030   19.2460 C.3   369  ARG369      0.0307
      6  CG       -32.8460  -16.0460   20.6940 C.3   369  ARG369      0.0489
      7  CD       -33.3630  -17.3130   21.3540 C.3   369  ARG369      0.2205
      8  NE       -32.5470  -18.4960   21.0830 N.pl3 369  ARG369     -0.0865
      9  CZ       -31.3360  -18.7080   21.5810 C.cat 369  ARG369      0.5346
     10  NH1      -30.7790  -17.8100   22.3870 N.pl3 369  ARG369      0.1354
     11  NH2      -30.6860  -19.8280   21.2820 N.pl3 369  ARG369      0.1354
     12  N        -36.5710  -17.2220   13.3730 N.3   393  ASP393     -0.1239
     13  CA       -36.6060  -16.9670   14.8010 C.3   393  ASP393      0.1674
     14  C        -35.7510  -15.7300   15.0420 C.2   393  ASP393      0.2266
     15  O        -34.5210  -15.7850   14.9350 O.2   393  ASP393     -0.2867
     16  CB       -36.0300  -18.1530   15.5830 C.3   393  ASP393      0.1410
     17  CG       -36.0500  -17.9270   17.0970 C.2   393  ASP393      0.3668
     18  OD1      -35.6630  -18.8610   17.8330 O.co2 393  ASP393     -0.2456
     19  OD2      -36.4470  -16.8250   17.5590 O.co2 393  ASP393     -0.2456
     20  N        -36.4500  -13.7870   17.8670 N.3   395  SER395     -0.1202
     21  CA       -36.8620  -13.4260   19.2120 C.3   395  SER395      0.2020
     22  C        -35.6820  -12.8050   19.9720 C.2   395  SER395      0.2618
     23  O        -34.5330  -12.9620   19.5800 O.2   395  SER395     -0.2717
     24  CB       -37.3590  -14.6590   19.9700 C.3   395  SER395      0.2103
     25  OG       -36.3200  -15.6080   20.1290 O.3   395  SER395     -0.2182
     26  N        -35.9850  -12.1080   21.0600 N.am  396  LYS396     -0.1979
     27  CA       -34.9640  -11.4830   21.8850 C.3   396  LYS396      0.1596
     28  C        -34.1530  -10.4340   21.1450 C.2   396  LYS396      0.2287
     29  O        -32.9680  -10.2440   21.4140 O.2   396  LYS396     -0.2864
     30  CB       -34.0410  -12.5460   22.4790 C.3   396  LYS396      0.0298
     31  CG       -34.6850  -13.3430   23.6040 C.3   396  LYS396      0.0038
     32  CD       -33.8460  -14.5510   23.9520 C.3   396  LYS396      0.0206
     33  CE       -33.7310  -14.7180   25.4490 C.3   396  LYS396      0.1093
     34  NZ       -32.9260  -13.6050   26.0420 N.3   396  LYS396     -0.1314
     35  N        -43.2720  -20.1280   10.0000 N.3   414  TYR414     -0.1241
     36  CA       -43.0210  -19.9730   11.4260 C.3   414  TYR414      0.1605
     37  C        -42.2350  -18.6890   11.6700 C.2   414  TYR414      0.2264
     38  O        -41.1790  -18.4870   11.0850 O.2   414  TYR414     -0.2867
     39  CB       -42.2510  -21.1990   11.9440 C.3   414  TYR414      0.0534
     40  CG       -41.5170  -21.0110   13.2610 C.ar  414  TYR414     -0.0201
     41  CD1      -40.1360  -20.7920   13.2880 C.ar  414  TYR414     -0.0009
     42  CD2      -42.1900  -21.1010   14.4780 C.ar  414  TYR414     -0.0009
     43  CE1      -39.4420  -20.6760   14.4980 C.ar  414  TYR414      0.0417
     44  CE2      -41.5060  -20.9840   15.6980 C.ar  414  TYR414      0.0417
     45  CZ       -40.1320  -20.7750   15.7010 C.ar  414  TYR414      0.1957
     46  OH       -39.4520  -20.6880   16.9000 O.3   414  TYR414     -0.2866
     47  N        -40.9170  -16.2650   14.9530 N.3   416  ASN416     -0.1240
     48  CA       -40.7980  -16.0990   16.3930 C.3   416  ASN416      0.1653
     49  C        -40.4220  -14.6570   16.7280 C.2   416  ASN416      0.2266
     50  O        -39.3040  -14.2140   16.4440 O.2   416  ASN416     -0.2867
     51  CB       -39.7420  -17.0420   16.9550 C.3   416  ASN416      0.1155
     52  CG       -39.8590  -17.2110   18.4530 C.2   416  ASN416      0.2627
     53  OD1      -40.2670  -16.2880   19.1570 O.2   416  ASN416     -0.2716
     54  ND2      -39.4890  -18.3890   18.9410 N.am  416  ASN416     -0.0877
     55  N        -40.9180  -13.4690   19.9220 N.3   418  SER418     -0.1202
     56  CA       -40.9670  -13.4680   21.3760 C.3   418  SER418      0.2020
     57  C        -39.9000  -12.5230   21.9500 C.2   418  SER418      0.2619
     58  O        -38.8430  -12.3220   21.3320 O.2   418  SER418     -0.2717
     59  CB       -40.7210  -14.8820   21.8950 C.3   418  SER418      0.2103
     60  OG       -40.6650  -14.8960   23.3070 O.3   418  SER418     -0.2182
     61  N        -40.1890  -11.9570   23.1260 N.am  419  SER419     -0.1951
     62  CA       -39.2810  -11.0390   23.8340 C.3   419  SER419      0.1924
     63  C        -38.7000  -10.0830   22.8310 C.2   419  SER419      0.2314
     64  O        -37.4890   -9.9590   22.6850 O.2   419  SER419     -0.2863
     65  CB       -38.1510  -11.8120   24.5060 C.3   419  SER419      0.2116
     66  OG       -38.6620  -12.8260   25.3480 O.3   419  SER419     -0.2180
     67  N        -47.3400  -20.8820   12.3590 N.3   435  ILE435     -0.1245
     68  CA       -46.9810  -20.7950   13.7740 C.3   435  ILE435      0.1561
     69  C        -46.4350  -19.3980   14.0690 C.2   435  ILE435      0.2260
     70  O        -45.5000  -18.9320   13.4120 O.2   435  ILE435     -0.2867
     71  CB       -45.8940  -21.8040   14.1570 C.3   435  ILE435      0.0252
     72  CG1      -46.3650  -23.2300   13.8810 C.3   435  ILE435      0.0019
     73  CG2      -45.5550  -21.6460   15.6290 C.3   435  ILE435      0.0019
     74  CD1      -45.2880  -24.2830   14.1520 C.3   435  ILE435      0.0001
     75  N        -45.2400  -16.7510   17.3380 N.3   437  ASP437     -0.1239
     76  CA       -44.9640  -16.6040   18.7580 C.3   437  ASP437      0.1674
     77  C        -44.6960  -15.1350   19.0420 C.2   437  ASP437      0.2266
     78  O        -43.7180  -14.5740   18.5560 O.2   437  ASP437     -0.2867
     79  CB       -43.7520  -17.4320   19.1770 C.3   437  ASP437      0.1410
     80  CG       -43.5690  -17.4710   20.6900 C.2   437  ASP437      0.3668
     81  OD1      -43.9440  -16.4840   21.3750 O.co2 437  ASP437     -0.2456
     82  OD2      -43.0330  -18.4810   21.1930 O.co2 437  ASP437     -0.2456
     83  N        -50.9760  -22.3590   15.2330 N.3   455  GLU455     -0.1245
     84  CA       -50.5050  -22.1120   16.5980 C.3   455  GLU455      0.1567
     85  C        -50.1960  -20.6550   16.9240 C.2   455  GLU455      0.2260
     86  O        -49.4090  -20.0000   16.2370 O.2   455  GLU455     -0.2867
     87  CB       -49.2580  -22.9470   16.8870 C.3   455  GLU455      0.0388
     88  CG       -49.4920  -24.4310   16.7950 C.3   455  GLU455      0.1160
     89  CD       -48.2070  -25.2200   16.8100 C.2   455  GLU455      0.3649
     90  OE1      -47.3940  -25.0200   17.7390 O.co2 455  GLU455     -0.2457
     91  OE2      -48.0110  -26.0450   15.8920 O.co2 455  GLU455     -0.2457
     92  N        -48.9340  -18.2460   20.1020 N.3   457  TYR457     -0.1241
     93  CA       -48.3780  -18.1370   21.4510 C.3   457  TYR457      0.1605
     94  C        -48.3230  -16.6570   21.7610 C.2   457  TYR457      0.2264
     95  O        -47.5790  -15.9040   21.1270 O.2   457  TYR457     -0.2867
     96  CB       -46.9760  -18.7400   21.5220 C.3   457  TYR457      0.0534
     97  CG       -46.9530  -20.2030   21.1780 C.ar  457  TYR457     -0.0201
     98  CD1      -46.7790  -20.6220   19.8640 C.ar  457  TYR457     -0.0009
     99  CD2      -47.1550  -21.1740   22.1600 C.ar  457  TYR457     -0.0009
    100  CE1      -46.8060  -21.9690   19.5290 C.ar  457  TYR457      0.0417
    101  CE2      -47.1850  -22.5360   21.8370 C.ar  457  TYR457      0.0417
    102  CZ       -47.0110  -22.9230   20.5140 C.ar  457  TYR457      0.1957
    103  OH       -47.0560  -24.2560   20.1590 O.3   457  TYR457     -0.2866
@<TRIPOS>BOND
     1    35    36    1
     2    38    37    2
     3    36    37    1
     4    36    39    1
     5    39    40    1
     6    67    68    1
     7    40    41   ar
     8    40    42   ar
     9    41    43   ar
    10    12    13    1
    11    70    69    2
    12    68    69    1
    13    68    71    1
    14    72    74    1
    15    72    71    1
    16    71    73    1
    17    42    44   ar
    18    43    45   ar
    19    13    14    1
    20    13    16    1
    21    15    14    2
    22    47    48    1
    23    83    84    1
    24    16    17    1
    25    44    45   ar
    26    45    46    1
    27    91    89   ar
    28    86    85    2
    29    48    49    1
    30    48    51    1
    31    50    49    2
    32    84    87    1
    33    84    85    1
    34    88    89    1
    35    88    87    1
    36    89    90   ar
    37    51    52    1
    38     1     2    1
    39    17    19   ar
    40    17    18   ar
    41    75    76    1
    42    20    21    1
    43     2     3    1
    44     2     5    1
    45    52    54   am
    46    52    53    2
    47    78    77    2
    48    76    77    1
    49    76    79    1
    50     4     3    2
    51    79    80    1
    52    21    24    1
    53    21    22    1
    54     5     6    1
    55   100    98   ar
    56   100   102   ar
    57    23    22    2
    58    98    97   ar
    59    55    56    1
    60    24    25    1
    61    22    26   am
    62    92    93    1
    63   103   102    1
    64   102   101   ar
    65    80    82   ar
    66    80    81   ar
    67     6     7    1
    68    26    27    1
    69     8     7    1
    70     8     9    2
    71    95    94    2
    72    28    29    2
    73    28    27    1
    74    97    96    1
    75    97    99   ar
    76    11     9    1
    77    58    57    2
    78    56    59    1
    79    56    57    1
    80    93    96    1
    81    93    94    1
    82     9    10    1
    83   101    99   ar
    84    27    30    1
    85    59    60    1
    86    57    61   am
    87    30    31    1
    88    64    63    2
    89    63    62    1
    90    61    62    1
    91    31    32    1
    92    62    65    1
    93    32    33    1
    94    65    66    1
    95    33    34    1
