@<TRIPOS>MOLECULE
tmp/2z81A00.pdb
 124 113 0 0 0
SMALL
GASTEIGER

@<TRIPOS>ATOM
      1  N         13.5440  -10.0480   -0.7030 N.3   369  SER369     -0.1217
      2  CA        13.4460   -9.4350   -2.0150 C.3   369  SER369      0.1889
      3  C         14.6920   -9.3680   -2.9110 C.2   369  SER369      0.2288
      4  O         14.9890  -10.3040   -3.6510 O.2   369  SER369     -0.2866
      5  CB        12.8230   -8.0430   -1.8860 C.3   369  SER369      0.2089
      6  OG        12.5030   -7.5220   -3.1630 O.3   369  SER369     -0.2183
      7  N          8.4370  -13.2120    0.5710 N.3   393  ASP393     -0.1239
      8  CA         8.6980  -12.3180   -0.5530 C.3   393  ASP393      0.1674
      9  C         10.1110  -12.6030   -1.0710 C.2   393  ASP393      0.2266
     10  O         11.0930  -12.3190   -0.3870 O.2   393  ASP393     -0.2867
     11  CB         8.5840  -10.8570   -0.0920 C.3   393  ASP393      0.1410
     12  CG         8.8790   -9.8510   -1.2050 C.2   393  ASP393      0.3668
     13  OD1        8.7720   -8.6290   -0.9360 O.co2 393  ASP393     -0.2456
     14  OD2        9.2180  -10.2630   -2.3380 O.co2 393  ASP393     -0.2456
     15  N         10.9180  -11.6860   -4.3400 N.3   395  SER395     -0.1202
     16  CA        10.9080  -10.8990   -5.5610 C.3   395  SER395      0.2020
     17  C         12.2870  -10.3160   -5.8190 C.2   395  SER395      0.2618
     18  O         13.1150  -10.2270   -4.9180 O.2   395  SER395     -0.2717
     19  CB         9.9060   -9.7530   -5.4310 C.3   395  SER395      0.2103
     20  OG        10.2660   -8.8820   -4.3650 O.3   395  SER395     -0.2182
     21  N         12.5150   -9.9020   -7.0550 N.am  396  ARG396     -0.1979
     22  CA        13.7800   -9.3040   -7.4440 C.3   396  ARG396      0.1597
     23  C         15.0180  -10.1790   -7.2330 C.2   396  ARG396      0.2287
     24  O         16.1040   -9.6740   -6.9620 O.2   396  ARG396     -0.2864
     25  CB        13.9430   -7.9540   -6.7430 C.3   396  ARG396      0.0334
     26  CG        12.8990   -6.9190   -7.1730 C.3   396  ARG396      0.0492
     27  CD        13.1820   -5.5590   -6.5540 C.3   396  ARG396      0.2205
     28  NE        13.0760   -5.6000   -5.0980 N.pl3 396  ARG396     -0.0865
     29  CZ        13.5770   -4.6780   -4.2810 C.cat 396  ARG396      0.5346
     30  NH1       14.2270   -3.6320   -4.7720 N.pl3 396  ARG396      0.1354
     31  NH2       13.4290   -4.8010   -2.9690 N.pl3 396  ARG396      0.1354
     32  N          0.9740  -16.3810    1.1320 N.3   414  PHE414     -0.1241
     33  CA         1.3740  -15.2200    0.3430 C.3   414  PHE414      0.1605
     34  C          2.7570  -15.4870   -0.2440 C.2   414  PHE414      0.2264
     35  O          3.6760  -15.8270    0.4860 O.2   414  PHE414     -0.2867
     36  CB         1.4130  -13.9950    1.2610 C.3   414  PHE414      0.0534
     37  CG         1.9280  -12.7380    0.6060 C.ar  414  PHE414     -0.0203
     38  CD1        1.0440  -11.7370    0.2120 C.ar  414  PHE414     -0.0042
     39  CD2        3.2950  -12.5340    0.4280 C.ar  414  PHE414     -0.0042
     40  CE1        1.5100  -10.5440   -0.3460 C.ar  414  PHE414     -0.0003
     41  CE2        3.7810  -11.3460   -0.1300 C.ar  414  PHE414     -0.0003
     42  CZ         2.8820  -10.3440   -0.5190 C.ar  414  PHE414     -0.0000
     43  N          5.5170  -13.7440   -3.1150 N.3   416  ASN416     -0.1240
     44  CA         5.8410  -12.7030   -4.0810 C.3   416  ASN416      0.1653
     45  C          7.0100  -13.1640   -4.9490 C.2   416  ASN416      0.2266
     46  O          8.1240  -13.3520   -4.4480 O.2   416  ASN416     -0.2867
     47  CB         6.2270  -11.4060   -3.3660 C.3   416  ASN416      0.1155
     48  CG         6.2020  -10.2010   -4.2920 C.2   416  ASN416      0.2627
     49  OD1        6.4290  -10.3250   -5.5020 O.2   416  ASN416     -0.2716
     50  ND2        5.9340   -9.0320   -3.7190 N.am  416  ASN416     -0.0877
     51  N          7.5740  -11.4830   -7.9360 N.3   418  SER418     -0.1202
     52  CA         7.6680  -10.3840   -8.8830 C.3   418  SER418      0.2020
     53  C          9.1190  -10.1530   -9.2940 C.2   418  SER418      0.2619
     54  O         10.0300  -10.2880   -8.4790 O.2   418  SER418     -0.2717
     55  CB         7.1130   -9.0990   -8.2630 C.3   418  SER418      0.2103
     56  OG         7.3080   -7.9900   -9.1310 O.3   418  SER418     -0.2182
     57  N          9.3220   -9.8080  -10.5600 N.am  419  SER419     -0.1951
     58  CA        10.6590   -9.5200  -11.0810 C.3   419  SER419      0.1924
     59  C         11.6940  -10.5960  -10.7710 C.2   419  SER419      0.2314
     60  O         12.7610  -10.2960  -10.2250 O.2   419  SER419     -0.2863
     61  CB        11.1520   -8.1850  -10.5150 C.3   419  SER419      0.2116
     62  OG        10.1740   -7.1670  -10.6570 O.3   419  SER419     -0.2180
     63  N         -2.5040  -15.4020   -2.0530 N.3   435  VAL435     -0.1245
     64  CA        -1.9750  -14.2410   -2.7740 C.3   435  VAL435      0.1561
     65  C         -0.7130  -14.6140   -3.5420 C.2   435  VAL435      0.2260
     66  O          0.2300  -15.1740   -2.9750 O.2   435  VAL435     -0.2867
     67  CB        -1.6460  -13.0610   -1.8250 C.3   435  VAL435      0.0252
     68  CG1       -1.0320  -11.9000   -2.6270 C.3   435  VAL435      0.0019
     69  CG2       -2.9120  -12.5930   -1.1140 C.3   435  VAL435      0.0019
     70  N          2.0480  -13.0300   -6.5120 N.3   437  ASP437     -0.1239
     71  CA         2.4830  -11.9120   -7.3320 C.3   437  ASP437      0.1674
     72  C          3.5540  -12.4250   -8.2820 C.2   437  ASP437      0.2266
     73  O          4.6480  -12.8020   -7.8480 O.2   437  ASP437     -0.2867
     74  CB         3.0640  -10.7890   -6.4620 C.3   437  ASP437      0.1410
     75  CG         3.3810   -9.5260   -7.2630 C.2   437  ASP437      0.3668
     76  OD1        3.5480   -9.6230   -8.4990 O.co2 437  ASP437     -0.2456
     77  OD2        3.4750   -8.4360   -6.6550 O.co2 437  ASP437     -0.2456
     78  N          4.1790  -10.5580  -11.1870 N.3   439  SER439     -0.1217
     79  CA         4.2580   -9.4240  -12.0890 C.3   439  SER439      0.1889
     80  C          5.6890   -9.1160  -12.4850 C.2   439  SER439      0.2288
     81  O          6.6400   -9.5410  -11.8270 O.2   439  SER439     -0.2866
     82  CB         3.6440   -8.1880  -11.4440 C.3   439  SER439      0.2089
     83  OG         4.4060   -7.7850  -10.3220 O.3   439  SER439     -0.2183
     84  N         -5.9170  -13.0760   -4.6630 N.3   455  GLU455     -0.1245
     85  CA        -5.2660  -12.0110   -5.4160 C.3   455  GLU455      0.1567
     86  C         -4.1580  -12.5100   -6.3360 C.2   455  GLU455      0.2260
     87  O         -3.2570  -13.2390   -5.9110 O.2   455  GLU455     -0.2867
     88  CB        -4.6760  -10.9570   -4.4710 C.3   455  GLU455      0.0388
     89  CG        -4.1400   -9.7330   -5.1980 C.3   455  GLU455      0.1160
     90  CD        -3.5610   -8.6880   -4.2620 C.2   455  GLU455      0.3649
     91  OE1       -2.3330   -8.7110   -4.0180 O.co2 455  GLU455     -0.2457
     92  OE2       -4.3410   -7.8470   -3.7660 O.co2 455  GLU455     -0.2457
     93  N         -1.4270  -11.0030   -9.1740 N.3   457  TYR457     -0.1241
     94  CA        -0.7930   -9.8230   -9.7540 C.3   457  TYR457      0.1605
     95  C          0.0860  -10.4070  -10.8550 C.2   457  TYR457      0.2264
     96  O          1.0280  -11.1460  -10.5730 O.2   457  TYR457     -0.2867
     97  CB         0.0480   -9.1260   -8.6750 C.3   457  TYR457      0.0534
     98  CG         0.5920   -7.7570   -9.0130 C.ar  457  TYR457     -0.0201
     99  CD1        1.2760   -7.0180   -8.0480 C.ar  457  TYR457     -0.0009
    100  CD2        0.4290   -7.1930  -10.2810 C.ar  457  TYR457     -0.0009
    101  CE1        1.7840   -5.7590   -8.3250 C.ar  457  TYR457      0.0417
    102  CE2        0.9360   -5.9200  -10.5720 C.ar  457  TYR457      0.0417
    103  CZ         1.6110   -5.2120   -9.5880 C.ar  457  TYR457      0.1957
    104  OH         2.1100   -3.9550   -9.8540 O.3   457  TYR457     -0.2866
    105  N          2.5910   -6.4620  -16.3230 N.3   460  ARG460     -0.1245
    106  CA         3.9130   -6.3820  -16.9290 C.3   460  ARG460      0.1563
    107  C          4.4870   -7.7410  -17.2970 C.2   460  ARG460      0.2260
    108  O          5.5410   -8.1400  -16.8060 O.2   460  ARG460     -0.2867
    109  CB         4.8780   -5.6370  -15.9960 C.3   460  ARG460      0.0307
    110  CG         4.4660   -4.1980  -15.7140 C.3   460  ARG460      0.0489
    111  CD         5.5580   -3.4100  -14.9920 C.3   460  ARG460      0.2205
    112  NE         5.8990   -3.9800  -13.6900 N.pl3 460  ARG460     -0.0865
    113  CZ         6.8190   -3.4790  -12.8700 C.cat 460  ARG460      0.5346
    114  NH1        7.5000   -2.3910  -13.2120 N.pl3 460  ARG460      0.1354
    115  NH2        7.0630   -4.0690  -11.7070 N.pl3 460  ARG460      0.1354
    116  N         -4.6650   -8.2490  -11.2890 N.3   479  LYS479     -0.1245
    117  CA        -3.9040   -7.1560  -11.8800 C.3   479  LYS479      0.1561
    118  C         -3.2490   -7.7230  -13.1240 C.2   479  LYS479      0.2260
    119  O         -2.3910   -8.6020  -13.0360 O.2   479  LYS479     -0.2867
    120  CB        -2.8360   -6.6540  -10.9040 C.3   479  LYS479      0.0271
    121  CG        -3.3850   -6.2880   -9.5380 C.3   479  LYS479      0.0035
    122  CD        -2.3360   -5.5950   -8.6700 C.3   479  LYS479      0.0206
    123  CE        -2.8880   -5.3000   -7.2820 C.3   479  LYS479      0.1093
    124  NZ        -1.9830   -4.4210   -6.4840 N.3   479  LYS479     -0.1314
@<TRIPOS>BOND
     1   107   106    1
     2   107   108    2
     3   106   105    1
     4   106   109    1
     5   109   110    1
     6   110   111    1
     7   111   112    1
     8   112   113    2
     9   114   113    1
    10   118   119    2
    11   118   117    1
    12   113   115    1
    13    80    79    1
    14    80    81    2
    15    79    82    1
    16    79    78    1
    17   117   116    1
    18   117   120    1
    19    82    83    1
    20    58    59    1
    21    58    57    1
    22    58    61    1
    23   120   121    1
    24    95    96    2
    25    95    94    1
    26    59    60    2
    27    62    61    1
    28   102   100   ar
    29   102   103   ar
    30    57    53   am
    31   100    98   ar
    32   104   103    1
    33    94    93    1
    34    94    97    1
    35   103   101   ar
    36   121   122    1
    37    53    52    1
    38    53    54    2
    39    56    55    1
    40    98    97    1
    41    98    99   ar
    42    52    55    1
    43    52    51    1
    44   122   123    1
    45    76    75   ar
    46   101    99   ar
    47    72    73    2
    48    72    71    1
    49    22    23    1
    50    22    21    1
    51    22    25    1
    52    71    70    1
    53    71    74    1
    54   123   124    1
    55    75    77   ar
    56    75    74    1
    57    23    24    2
    58    26    25    1
    59    26    27    1
    60    21    17   am
    61    27    28    1
    62    86    87    2
    63    86    85    1
    64    17    16    1
    65    17    18    2
    66    16    19    1
    67    16    15    1
    68    49    48    2
    69    19    20    1
    70    85    84    1
    71    85    88    1
    72    89    88    1
    73    89    90    1
    74    28    29    2
    75    45    46    2
    76    45    44    1
    77    30    29    1
    78    48    50   am
    79    48    47    1
    80    29    31    1
    81    90    91   ar
    82    90    92   ar
    83    44    47    1
    84    44    43    1
    85     4     3    2
    86    65    66    2
    87    65    64    1
    88     6     5    1
    89     3     2    1
    90    64    63    1
    91    64    67    1
    92    68    67    1
    93    14    12   ar
    94     2     5    1
    95     2     1    1
    96    67    69    1
    97    12    13   ar
    98    12    11    1
    99     9     8    1
   100     9    10    2
   101     8    11    1
   102     8     7    1
   103    42    40   ar
   104    42    41   ar
   105    40    38   ar
   106    34    33    1
   107    34    35    2
   108    41    39   ar
   109    38    37   ar
   110    33    32    1
   111    33    36    1
   112    39    37   ar
   113    37    36    1
