@<TRIPOS>MOLECULE
tmp/2z86C00.pdb
 117 114 0 0 0
SMALL
GASTEIGER

@<TRIPOS>ATOM
      1  N         14.2630    1.1490   -2.2360 N.3    95  PRO95      -0.2102
      2  CA        14.2160   -0.2240   -2.7500 C.3    95  PRO95       0.1504
      3  C         13.9680   -0.1650   -4.2480 C.2    95  PRO95       0.2576
      4  O         13.0390    0.4990   -4.7100 O.2    95  PRO95      -0.2718
      5  CB        13.0440   -0.8400   -1.9930 C.3    95  PRO95       0.0282
      6  CG        13.0640   -0.1030   -0.7030 C.3    95  PRO95       0.0208
      7  CD        13.2900    1.3250   -1.1480 C.3    95  PRO95       0.0893
      8  N         14.8070   -0.8560   -5.0060 N.am   96  THR96      -0.1939
      9  CA        14.6910   -0.8470   -6.4540 C.3    96  THR96       0.2028
     10  C         14.8050   -2.2290   -7.0650 C.2    96  THR96       0.2642
     11  O         15.6420   -3.0370   -6.6630 O.2    96  THR96      -0.2714
     12  CB        15.7960    0.0130   -7.0830 C.3    96  THR96       0.1808
     13  OG1       15.8940    1.2540   -6.3780 O.3    96  THR96      -0.2208
     14  CG2       15.4840    0.2990   -8.5230 C.3    96  THR96       0.0379
     15  N         13.9450   -2.4820   -8.0400 N.am   97  TYR97      -0.1973
     16  CA        13.9410   -3.7290   -8.7920 C.3    97  TYR97       0.1639
     17  C         13.6480   -3.3160  -10.2320 C.2    97  TYR97       0.2290
     18  O         12.5000   -3.0500  -10.5890 O.2    97  TYR97      -0.2864
     19  CB        12.8560   -4.6740   -8.2980 C.3    97  TYR97       0.0560
     20  CG        12.8610   -5.9670   -9.0630 C.ar   97  TYR97      -0.0198
     21  CD1       14.0540   -6.6580   -9.2770 C.ar   97  TYR97      -0.0009
     22  CD2       11.6870   -6.5040   -9.5830 C.ar   97  TYR97      -0.0009
     23  CE1       14.0810   -7.8470   -9.9890 C.ar   97  TYR97       0.0417
     24  CE2       11.7050   -7.7010  -10.3010 C.ar   97  TYR97       0.0417
     25  CZ        12.9070   -8.3590  -10.4960 C.ar   97  TYR97       0.1957
     26  OH        12.9520   -9.5300  -11.2100 O.3    97  TYR97      -0.2866
     27  N         13.1930   -1.0780  -13.4440 N.3    99  ARG99      -0.1245
     28  CA        12.6060    0.2380  -13.5570 C.3    99  ARG99       0.1563
     29  C         13.6560    1.3320  -13.4950 C.2    99  ARG99       0.2260
     30  O         13.4640    2.3320  -12.8020 O.2    99  ARG99      -0.2867
     31  CB        11.6150    0.4550  -12.4340 C.3    99  ARG99       0.0307
     32  CG        10.4560   -0.4940  -12.4490 C.3    99  ARG99       0.0489
     33  CD         9.4990   -0.0930  -11.3540 C.3    99  ARG99       0.2205
     34  NE         8.3400   -0.9670  -11.2990 N.pl3  99  ARG99      -0.0865
     35  CZ         7.5970   -1.1240  -10.2150 C.cat  99  ARG99       0.5346
     36  NH1        7.9100   -0.4540   -9.1100 N.pl3  99  ARG99       0.1354
     37  NH2        6.5590   -1.9610  -10.2340 N.pl3  99  ARG99       0.1354
     38  N         17.4860   -4.8230   -5.3060 N.3   126  ASP126     -0.1239
     39  CA        17.1580   -6.2130   -4.9660 C.3   126  ASP126      0.1674
     40  C         17.4010   -7.1320   -6.1510 C.2   126  ASP126      0.2266
     41  O         16.4630   -7.7040   -6.6990 O.2   126  ASP126     -0.2867
     42  CB        15.6930   -6.3550   -4.5110 C.3   126  ASP126      0.1410
     43  CG        15.3150   -7.8160   -4.1450 C.2   126  ASP126      0.3668
     44  OD1       16.1930   -8.5710   -3.6690 O.co2 126  ASP126     -0.2456
     45  OD2       14.1390   -8.2140   -4.3080 O.co2 126  ASP126     -0.2456
     46  N         14.6540  -14.0550   -5.5010 N.3   154  GLY154     -0.1210
     47  CA        13.2200  -13.8760   -5.3770 C.3   154  GLY154      0.1956
     48  C         12.8020  -12.4990   -4.9200 C.2   154  GLY154      0.2612
     49  O         13.5740  -11.5440   -4.9940 O.2   154  GLY154     -0.2717
     50  N         11.5640  -12.4000   -4.4530 N.am  155  TYR155     -0.1962
     51  CA        11.0270  -11.1510   -3.9510 C.3   155  TYR155      0.1771
     52  C         11.6690  -10.9540   -2.5650 C.2   155  TYR155      0.2619
     53  O         11.4250  -11.7290   -1.6420 O.2   155  TYR155     -0.2715
     54  CB         9.5080  -11.2800   -3.8500 C.3   155  TYR155      0.0574
     55  CG         8.7710  -10.0040   -3.5330 C.ar  155  TYR155     -0.0198
     56  CD1        8.1180   -9.2880   -4.5360 C.ar  155  TYR155     -0.0009
     57  CD2        8.6910   -9.5310   -2.2230 C.ar  155  TYR155     -0.0009
     58  CE1        7.3930   -8.1330   -4.2410 C.ar  155  TYR155      0.0417
     59  CE2        7.9700   -8.3720   -1.9140 C.ar  155  TYR155      0.0417
     60  CZ         7.3200   -7.6820   -2.9280 C.ar  155  TYR155      0.1957
     61  OH         6.5690   -6.5660   -2.6230 O.3   155  TYR155     -0.2866
     62  N         12.4960   -9.9220   -2.4230 N.am  156  GLN156     -0.1963
     63  CA        13.1840   -9.6690   -1.1640 C.3   156  GLN156      0.1733
     64  C         13.1130   -8.2050   -0.7060 C.2   156  GLN156      0.2616
     65  O         14.1330   -7.6310   -0.3020 O.2   156  GLN156     -0.2715
     66  CB        14.6510  -10.0640   -1.3020 C.3   156  GLN156      0.0408
     67  CG        14.8790  -11.4790   -1.7460 C.3   156  GLN156      0.0908
     68  CD        14.2530  -12.4810   -0.8050 C.2   156  GLN156      0.2608
     69  OE1       14.2080  -12.2690    0.4120 O.2   156  GLN156     -0.2717
     70  NE2       13.7740  -13.5900   -1.3560 N.am  156  GLN156     -0.0878
     71  N         11.9240   -7.6060   -0.7730 N.am  157  LEU157     -0.1977
     72  CA        11.7330   -6.2190   -0.3620 C.3   157  LEU157      0.1596
     73  C         12.2920   -6.0170    1.0490 C.2   157  LEU157      0.2287
     74  O         13.1250   -5.1420    1.2850 O.2   157  LEU157     -0.2864
     75  CB        10.2450   -5.8800   -0.3410 C.3   157  LEU157      0.0297
     76  CG         9.7650   -4.5080   -0.8210 C.3   157  LEU157      0.0022
     77  CD1        8.3160   -4.3760   -0.3810 C.3   157  LEU157      0.0001
     78  CD2       10.6110   -3.3630   -0.2670 C.3   157  LEU157      0.0001
     79  N         16.2450   -6.3120    1.1400 N.3   160  VAL160     -0.1245
     80  CA        16.8950   -5.1440    0.5770 C.3   160  VAL160      0.1561
     81  C         16.6860   -3.8920    1.4380 C.2   160  VAL160      0.2260
     82  O         17.6020   -3.0830    1.5940 O.2   160  VAL160     -0.2867
     83  CB        16.4130   -4.9050   -0.8780 C.3   160  VAL160      0.0252
     84  CG1       15.0840   -4.1940   -0.8900 C.3   160  VAL160      0.0019
     85  CG2       17.4540   -4.1310   -1.6410 C.3   160  VAL160      0.0019
     86  N          9.7820    3.9620   -2.1420 N.3   177  ASP177     -0.1225
     87  CA         9.8210    3.0310   -3.2730 C.3   177  ASP177      0.1805
     88  C         10.5010    3.6900   -4.4720 C.2   177  ASP177      0.2598
     89  O         10.4270    4.9170   -4.6400 O.2   177  ASP177     -0.2718
     90  CB         8.4100    2.5580   -3.6540 C.3   177  ASP177      0.1424
     91  CG         7.8800    1.4760   -2.7150 C.2   177  ASP177      0.3668
     92  OD1        8.7060    0.7590   -2.1190 O.co2 177  ASP177     -0.2456
     93  OD2        6.6460    1.3270   -2.5770 O.co2 177  ASP177     -0.2456
     94  N         11.1640    2.8830   -5.3040 N.am  178  CYS178     -0.1956
     95  CA        11.8720    3.4220   -6.4650 C.3   178  CYS178      0.1843
     96  C         10.9850    4.2280   -7.4160 C.2   178  CYS178      0.2625
     97  O         11.4720    5.1130   -8.1100 O.2   178  CYS178     -0.2714
     98  CB        12.5950    2.3050   -7.2310 C.3   178  CYS178      0.0997
     99  SG        11.5290    1.1840   -8.1390 S.3   178  CYS178     -0.0797
    100  N          9.6880    3.9370   -7.4370 N.am  179  ASP179     -0.1971
    101  CA         8.7580    4.6610   -8.3010 C.3   179  ASP179      0.1709
    102  C          7.9970    5.7490   -7.5390 C.2   179  ASP179      0.2293
    103  O          7.0180    6.3040   -8.0450 O.2   179  ASP179     -0.2864
    104  CB         7.7530    3.6950   -8.8940 C.3   179  ASP179      0.1436
    105  CG         7.1060    2.8530   -7.8460 C.2   179  ASP179      0.3671
    106  OD1        7.3460    3.1360   -6.6540 O.co2 179  ASP179     -0.2456
    107  OD2        6.3650    1.9130   -8.2080 O.co2 179  ASP179     -0.2456
    108  N          3.3630    8.4020   -7.1580 N.3   316  HIS316     -0.1241
    109  CA         3.5180    7.0370   -7.6210 C.3   316  HIS316      0.1621
    110  C          3.5130    7.0610   -9.1410 C.2   316  HIS316      0.2264
    111  O          2.5990    7.6020   -9.7480 O.2   316  HIS316     -0.2867
    112  CB         2.3470    6.1880   -7.1140 C.3   316  HIS316      0.0745
    113  CG         2.4380    4.7390   -7.4850 C.ar  316  HIS316      0.0817
    114  ND1        2.2750    4.2860   -8.7750 N.ar  316  HIS316     -0.2268
    115  CD2        2.6770    3.6400   -6.7290 C.ar  316  HIS316      0.1154
    116  CE1        2.4090    2.9710   -8.7990 C.ar  316  HIS316      0.1986
    117  NE2        2.6530    2.5550   -7.5700 N.ar  316  HIS316     -0.2212
@<TRIPOS>BOND
     1    28    29    1
     2    28    27    1
     3    28    31    1
     4    29    30    2
     5    32    31    1
     6    32    33    1
     7    33    34    1
     8    34    35    2
     9    26    25    1
    10    18    17    2
    11    25    24   ar
    12    25    23   ar
    13    24    22   ar
    14    37    35    1
    15    17    16    1
    16    35    36    1
    17    23    21   ar
    18   111   110    2
    19    22    20   ar
    20    21    20   ar
    21   110   109    1
    22    20    19    1
    23   104   101    1
    24   104   105    1
    25   116   114   ar
    26   116   117   ar
    27    16    19    1
    28    16    15    1
    29   114   113   ar
    30    14    12    1
    31   101   102    1
    32   101   100    1
    33   107   105   ar
    34    99    98    1
    35    97    96    2
    36   103   102    2
    37    15    10   am
    38   105   106   ar
    39   109   108    1
    40   109   112    1
    41   117   115   ar
    42   113   112    1
    43   113   115   ar
    44   100    96   am
    45    96    95    1
    46    98    95    1
    47    12     9    1
    48    12    13    1
    49    10    11    2
    50    10     9    1
    51    41    40    2
    52    95    94    1
    53     9     8    1
    54    40    39    1
    55    46    47    1
    56    47    48    1
    57    38    39    1
    58    94    88   am
    59     8     3   am
    60    49    48    2
    61    39    42    1
    62    48    50   am
    63     4     3    2
    64    89    88    2
    65    56    58   ar
    66    56    55   ar
    67    42    43    1
    68    88    87    1
    69    50    51    1
    70    45    43   ar
    71     3     2    1
    72    58    60   ar
    73    43    44   ar
    74    51    54    1
    75    51    52    1
    76    54    55    1
    77    90    87    1
    78    90    91    1
    79    55    57   ar
    80    87    86    1
    81    60    61    1
    82    60    59   ar
    83     2     1    1
    84     2     5    1
    85    91    93   ar
    86    91    92   ar
    87    52    62   am
    88    52    53    2
    89    62    63    1
    90     1     7    1
    91    57    59   ar
    92     5     6    1
    93    67    66    1
    94    67    68    1
    95    85    83    1
    96    70    68   am
    97    66    63    1
    98    63    64    1
    99     7     6    1
   100    84    83    1
   101    83    80    1
   102    76    77    1
   103    76    75    1
   104    76    78    1
   105    68    69    2
   106    71    64   am
   107    71    72    1
   108    64    65    2
   109    72    75    1
   110    72    73    1
   111    80    79    1
   112    80    81    1
   113    73    74    2
   114    81    82    2
