@<TRIPOS>MOLECULE
tmp/2z86C01.pdb
 170 161 0 0 0
SMALL
GASTEIGER

@<TRIPOS>ATOM
      1  N          7.4970  -12.8480   38.7110 N.3   360  PRO360     -0.2116
      2  CA         8.7480  -12.5480   39.4080 C.3   360  PRO360      0.1372
      3  C          8.8280  -13.5700   40.5570 C.2   360  PRO360      0.2244
      4  O          8.1830  -13.4130   41.5900 O.2   360  PRO360     -0.2868
      5  CB         8.5290  -11.1160   39.8800 C.3   360  PRO360      0.0268
      6  CG         7.0730  -11.1120   40.2100 C.3   360  PRO360      0.0207
      7  CD         6.4520  -11.8690   39.0650 C.3   360  PRO360      0.0892
      8  N         10.7700  -15.7350   43.5190 N.3   362  TYR362     -0.1241
      9  CA        11.8420  -15.8050   44.5010 C.3   362  TYR362      0.1605
     10  C         11.4190  -16.7310   45.6410 C.2   362  TYR362      0.2264
     11  O         10.5740  -16.3680   46.4620 O.2   362  TYR362     -0.2867
     12  CB        12.1580  -14.4200   45.0590 C.3   362  TYR362      0.0534
     13  CG        13.1720  -14.4570   46.1760 C.ar  362  TYR362     -0.0201
     14  CD1       12.7900  -14.2530   47.5020 C.ar  362  TYR362     -0.0009
     15  CD2       14.5140  -14.7460   45.9130 C.ar  362  TYR362     -0.0009
     16  CE1       13.7160  -14.3340   48.5420 C.ar  362  TYR362      0.0417
     17  CE2       15.4510  -14.8340   46.9430 C.ar  362  TYR362      0.0417
     18  CZ        15.0440  -14.6270   48.2550 C.ar  362  TYR362      0.1957
     19  OH        15.9660  -14.7260   49.2740 O.3   362  TYR362     -0.2866
     20  N         14.5590  -14.7400   40.5590 N.3   390  ASP390     -0.1239
     21  CA        15.4090  -13.7400   41.1750 C.3   390  ASP390      0.1674
     22  C         16.4670  -14.3330   42.1070 C.2   390  ASP390      0.2266
     23  O         16.5250  -13.9880   43.2820 O.2   390  ASP390     -0.2867
     24  CB        14.5350  -12.7270   41.9200 C.3   390  ASP390      0.1410
     25  CG        15.2480  -11.4180   42.1600 C.2   390  ASP390      0.3668
     26  OD1       16.2140  -11.1490   41.4210 O.co2 390  ASP390     -0.2456
     27  OD2       14.8410  -10.6540   43.0650 O.co2 390  ASP390     -0.2456
     28  N         19.6440  -12.4990   42.8600 N.3   417  ASN417     -0.1240
     29  CA        18.5620  -11.7700   43.5030 C.3   417  ASN417      0.1653
     30  C         18.7650  -10.2660   43.4000 C.2   417  ASN417      0.2266
     31  O         19.8510   -9.7620   43.6780 O.2   417  ASN417     -0.2867
     32  CB        18.4770  -12.1340   44.9760 C.3   417  ASN417      0.1155
     33  CG        17.3350  -11.4370   45.6720 C.2   417  ASN417      0.2627
     34  OD1       16.1730  -11.7980   45.4840 O.2   417  ASN417     -0.2716
     35  ND2       17.6520  -10.4200   46.4710 N.am  417  ASN417     -0.0877
     36  N         15.4970   -8.1400   43.5660 N.3   419  GLY419     -0.1210
     37  CA        14.2450   -7.5110   43.9420 C.3   419  GLY419      0.1956
     38  C         13.0660   -7.7070   43.0130 C.2   419  GLY419      0.2611
     39  O         13.2250   -7.9470   41.8170 O.2   419  GLY419     -0.2717
     40  N         11.8680   -7.5840   43.5790 N.am  420  ILE420     -0.1979
     41  CA        10.6370   -7.7490   42.8250 C.3   420  ILE420      0.1595
     42  C         10.5760   -6.7180   41.6950 C.2   420  ILE420      0.2287
     43  O         10.0240   -6.9900   40.6230 O.2   420  ILE420     -0.2864
     44  CB         9.3850   -7.6610   43.7720 C.3   420  ILE420      0.0276
     45  CG1        8.4620   -6.5210   43.3540 C.3   420  ILE420      0.0022
     46  CG2        9.8180   -7.5110   45.2160 C.3   420  ILE420      0.0022
     47  CD1        7.6420   -6.8370   42.1170 C.3   420  ILE420      0.0001
     48  N         13.3330   -8.0900   39.1370 N.3   423  ALA423     -0.1245
     49  CA        12.8410   -9.3720   38.6520 C.3   423  ALA423      0.1562
     50  C         11.6790   -9.1330   37.6980 C.2   423  ALA423      0.2260
     51  O         11.5090   -9.8760   36.7340 O.2   423  ALA423     -0.2867
     52  CB        12.3940  -10.2350   39.8070 C.3   423  ALA423      0.0290
     53  N         -0.1310   -9.8210   35.1960 N.3   438  GLN438     -0.1245
     54  CA         0.7610  -10.0170   36.3300 C.3   438  GLN438      0.1566
     55  C          0.3380  -11.1840   37.2110 C.2   438  GLN438      0.2260
     56  O         -0.8510  -11.3980   37.4520 O.2   438  GLN438     -0.2867
     57  CB         0.8380   -8.7420   37.1890 C.3   438  GLN438      0.0367
     58  CG         1.7050   -8.9250   38.4450 C.3   438  GLN438      0.0905
     59  CD         1.7180   -7.7320   39.3830 C.2   438  GLN438      0.2608
     60  OE1        2.3570   -7.7810   40.4320 O.2   438  GLN438     -0.2717
     61  NE2        1.0140   -6.6640   39.0210 N.am  438  GLN438     -0.0878
     62  N          2.1590  -13.0050   40.7460 N.3   440  ASP440     -0.1225
     63  CA         3.2390  -13.2830   41.6750 C.3   440  ASP440      0.1805
     64  C          3.3600  -14.7970   41.8850 C.2   440  ASP440      0.2598
     65  O          2.3650  -15.5180   41.9540 O.2   440  ASP440     -0.2718
     66  CB         2.9960  -12.5660   43.0030 C.3   440  ASP440      0.1424
     67  CG         2.8190  -11.0660   42.8310 C.2   440  ASP440      0.3668
     68  OD1        3.6470  -10.4310   42.1480 O.co2 440  ASP440     -0.2456
     69  OD2        1.8470  -10.5180   43.3860 O.co2 440  ASP440     -0.2456
     70  N          4.6010  -15.2580   41.9840 N.am  441  SER441     -0.1938
     71  CA         4.9340  -16.6680   42.1330 C.3   441  SER441      0.2055
     72  C          4.2020  -17.4870   43.1840 C.2   441  SER441      0.2643
     73  O          4.2020  -18.7070   43.1090 O.2   441  SER441     -0.2714
     74  CB         6.4270  -16.8000   42.3830 C.3   441  SER441      0.2130
     75  OG         6.7660  -16.2100   43.6230 O.3   441  SER441     -0.2179
     76  N          3.5920  -16.8290   44.1650 N.am  442  ASP442     -0.1971
     77  CA         2.8860  -17.5370   45.2310 C.3   442  ASP442      0.1709
     78  C          1.3450  -17.4590   45.2060 C.2   442  ASP442      0.2293
     79  O          0.6860  -17.9480   46.1210 O.2   442  ASP442     -0.2864
     80  CB         3.4220  -17.0810   46.6020 C.3   442  ASP442      0.1436
     81  CG         3.4450  -15.5630   46.7650 C.2   442  ASP442      0.3671
     82  OD1        4.5260  -15.0160   47.0670 O.co2 442  ASP442     -0.2456
     83  OD2        2.3900  -14.9110   46.6090 O.co2 442  ASP442     -0.2456
     84  N         -5.0800   -6.9070   42.4260 N.3   502  HIS502     -0.1241
     85  CA        -4.7120   -8.0250   41.5720 C.3   502  HIS502      0.1621
     86  C         -5.8160   -8.6660   40.8800 C.2   502  HIS502      0.2264
     87  O         -6.7010   -8.7720   41.4230 O.2   502  HIS502     -0.2867
     88  CB        -4.1290   -9.1580   42.3340 C.3   502  HIS502      0.0745
     89  CG        -2.6790   -9.1080   42.6330 C.ar  502  HIS502      0.0817
     90  ND1       -1.7370   -9.2460   41.7150 N.ar  502  HIS502     -0.2268
     91  CD2       -2.0410   -8.9970   43.7820 C.ar  502  HIS502      0.1154
     92  CE1       -0.5880   -9.1700   42.2800 C.ar  502  HIS502      0.1986
     93  NE2       -0.7570   -9.0060   43.5340 N.ar  502  HIS502     -0.2212
     94  N         -3.8630   -7.7550   37.3200 N.3   504  ARG504     -0.1245
     95  CA        -3.8130   -6.5920   36.4870 C.3   504  ARG504      0.1563
     96  C         -3.2830   -7.1120   35.1630 C.2   504  ARG504      0.2260
     97  O         -2.4800   -8.0460   35.1230 O.2   504  ARG504     -0.2867
     98  CB        -2.8370   -5.5510   37.0660 C.3   504  ARG504      0.0307
     99  CG        -3.0940   -5.1680   38.5110 C.3   504  ARG504      0.0489
    100  CD        -2.0620   -5.7850   39.4550 C.3   504  ARG504      0.2205
    101  NE        -2.3330   -5.4300   40.8480 N.pl3 504  ARG504     -0.0865
    102  CZ        -1.4590   -5.5470   41.8460 C.cat 504  ARG504      0.5346
    103  NH1       -0.2360   -6.0080   41.6260 N.pl3 504  ARG504      0.1354
    104  NH2       -1.8070   -5.2020   43.0700 N.pl3 504  ARG504      0.1354
    105  N         12.1510   -1.4940   47.9890 N.3   522  SER522     -0.1202
    106  CA        11.8490   -2.8430   48.4690 C.3   522  SER522      0.2020
    107  C         10.4340   -3.3510   48.2650 C.2   522  SER522      0.2619
    108  O         10.2320   -4.5200   47.9540 O.2   522  SER522     -0.2717
    109  CB        12.2010   -2.9510   49.9550 C.3   522  SER522      0.2103
    110  OG        13.6070   -3.0130   50.1370 O.3   522  SER522     -0.2182
    111  N          9.4570   -2.4870   48.4900 N.am  523  ASN523     -0.1960
    112  CA         8.0620   -2.8430   48.3020 C.3   523  ASN523      0.1819
    113  C          7.3280   -1.6170   47.7730 C.2   523  ASN523      0.2621
    114  O          7.8990   -0.5240   47.7070 O.2   523  ASN523     -0.2715
    115  CB         7.4390   -3.3420   49.6080 C.3   523  ASN523      0.1195
    116  CG         7.7740   -2.4570   50.8020 C.2   523  ASN523      0.2630
    117  OD1        7.4980   -1.2520   50.8060 O.2   523  ASN523     -0.2716
    118  ND2        8.3670   -3.0600   51.8310 N.am  523  ASN523     -0.0877
    119  N          6.0630   -1.8100   47.4100 N.am  524  ALA524     -0.1963
    120  CA         5.2110   -0.7730   46.8210 C.3   524  ALA524      0.1728
    121  C          5.5690   -0.7200   45.3280 C.2   524  ALA524      0.2616
    122  O          5.2040    0.2140   44.6190 O.2   524  ALA524     -0.2715
    123  CB         5.4560    0.5880   47.4880 C.3   524  ALA524      0.0334
    124  N          6.2930   -1.7420   44.8670 N.am  525  VAL525     -0.1963
    125  CA         6.7160   -1.8450   43.4740 C.3   525  VAL525      0.1727
    126  C          5.5150   -1.9090   42.5500 C.2   525  VAL525      0.2616
    127  O          5.5850   -1.4560   41.4060 O.2   525  VAL525     -0.2715
    128  CB         7.5910   -3.1000   43.2340 C.3   525  VAL525      0.0290
    129  CG1        7.9060   -3.2550   41.7580 C.3   525  VAL525      0.0023
    130  CG2        8.8740   -2.9910   44.0230 C.3   525  VAL525      0.0023
    131  N          4.4170   -2.4650   43.0460 N.am  526  ASP526     -0.1971
    132  CA         3.2050   -2.5600   42.2500 C.3   526  ASP526      0.1709
    133  C          2.4600   -1.2260   42.2110 C.2   526  ASP526      0.2293
    134  O          2.0470   -0.7760   41.1480 O.2   526  ASP526     -0.2864
    135  CB         2.2970   -3.6980   42.7670 C.3   526  ASP526      0.1436
    136  CG         1.8240   -3.4920   44.2000 C.2   526  ASP526      0.3671
    137  OD1        2.4880   -2.7590   44.9690 O.co2 526  ASP526     -0.2456
    138  OD2        0.7850   -4.0900   44.5640 O.co2 526  ASP526     -0.2456
    139  N         -4.6570  -14.4650   46.2370 N.3   549  ARG549     -0.1231
    140  CA        -3.3670  -14.0800   46.8090 C.3   549  ARG549      0.1694
    141  C         -3.1550  -14.7150   48.1770 C.2   549  ARG549      0.2591
    142  O         -4.0660  -14.7270   48.9930 O.2   549  ARG549     -0.2718
    143  CB        -3.2470  -12.5500   46.9510 C.3   549  ARG549      0.0321
    144  CG        -1.9970  -12.1220   47.7370 C.3   549  ARG549      0.0489
    145  CD        -1.4800  -10.7120   47.4230 C.3   549  ARG549      0.2205
    146  NE        -2.2180   -9.6330   48.0890 N.pl3 549  ARG549     -0.0865
    147  CZ        -3.2630   -8.9910   47.5660 C.cat 549  ARG549      0.5346
    148  NH1       -3.7090   -9.3130   46.3610 N.pl3 549  ARG549      0.1354
    149  NH2       -3.8610   -8.0210   48.2430 N.pl3 549  ARG549      0.1354
    150  N         -1.9530  -15.2410   48.4200 N.am  550  VAL550     -0.1980
    151  CA        -1.6200  -15.8520   49.7150 C.3   550  VAL550      0.1595
    152  C         -1.3220  -14.7420   50.7150 C.2   550  VAL550      0.2287
    153  O         -0.5490  -13.8310   50.4260 O.2   550  VAL550     -0.2864
    154  CB        -0.3590  -16.7490   49.6420 C.3   550  VAL550      0.0276
    155  CG1       -0.0130  -17.2610   51.0410 C.3   550  VAL550      0.0022
    156  CG2       -0.5890  -17.9140   48.6840 C.3   550  VAL550      0.0022
    157  N          0.6030  -14.4360   53.2950 N.3   552  HIS552     -0.1226
    158  CA         1.8290  -14.5670   54.0760 C.3   552  HIS552      0.1752
    159  C          2.2260  -13.0970   54.2560 C.2   552  HIS552      0.2596
    160  O          3.0500  -12.7420   55.1080 O.2   552  HIS552     -0.2718
    161  CB         2.9000  -15.3050   53.2530 C.3   552  HIS552      0.0759
    162  CG         3.2470  -14.6350   51.9500 C.ar  552  HIS552      0.0818
    163  ND1        3.4680  -15.3430   50.7910 N.ar  552  HIS552     -0.2268
    164  CD2        3.4260  -13.3290   51.6310 C.ar  552  HIS552      0.1154
    165  CE1        3.7660  -14.5040   49.8110 C.ar  552  HIS552      0.1986
    166  NE2        3.7470  -13.2770   50.2950 N.ar  552  HIS552     -0.2212
    167  N          1.6040  -12.2670   53.4070 N.am  553  GLY553     -0.1957
    168  CA         1.8200  -10.8280   53.3680 C.3   553  GLY553      0.1869
    169  C          1.1670  -10.1670   54.5610 C.2   553  GLY553      0.2309
    170  O          0.8900   -8.9470   54.5530 O.2   553  GLY553     -0.2863
@<TRIPOS>BOND
     1    97    96    2
     2    96    95    1
     3    53    54    1
     4    54    57    1
     5    54    55    1
     6    95    98    1
     7    95    94    1
     8    51    50    2
     9    98    99    1
    10    57    58    1
    11    55    56    2
    12    50    49    1
    13    58    59    1
    14    99   100    1
    15    49    48    1
    16    49    52    1
    17     1     7    1
    18     1     2    1
    19    61    59   am
    20     7     6    1
    21    59    60    2
    22     2     5    1
    23     2     3    1
    24   100   101    1
    25     5     6    1
    26     3     4    2
    27    20    21    1
    28    43    42    2
    29    62    63    1
    30   101   102    2
    31    86    87    2
    32    86    85    1
    33   134   133    2
    34    21    24    1
    35    21    22    1
    36   127   126    2
    37    26    25   ar
    38    85    88    1
    39    85    84    1
    40   103   102    1
    41    63    64    1
    42    63    66    1
    43    42    41    1
    44    90    92   ar
    45    90    89   ar
    46   129   128    1
    47    39    38    2
    48   102   104    1
    49    64    65    2
    50    64    70   am
    51    24    25    1
    52    70    71    1
    53    22    23    2
    54    47    45    1
    55    71    74    1
    56    71    72    1
    57    68    67   ar
    58    25    27   ar
    59   133   132    1
    60   132   135    1
    61   132   131    1
    62    92    93   ar
    63    88    89    1
    64    74    75    1
    65   126   131   am
    66   126   125    1
    67    89    91   ar
    68   135   136    1
    69    41    40    1
    70    41    44    1
    71    67    66    1
    72    67    69   ar
    73    28    29    1
    74    38    40   am
    75    38    37    1
    76    73    72    2
    77    72    76   am
    78   128   125    1
    79   128   130    1
    80    45    44    1
    81    30    29    1
    82    30    31    2
    83   125   124    1
    84    29    32    1
    85     8     9    1
    86    93    91   ar
    87    36    37    1
    88    44    46    1
    89    76    77    1
    90   136   138   ar
    91   136   137   ar
    92     9    12    1
    93     9    10    1
    94   122   121    2
    95   124   121   am
    96    32    33    1
    97    12    13    1
    98    78    77    1
    99    78    79    2
   100    77    80    1
   101   121   120    1
   102    34    33    2
   103    10    11    2
   104    33    35   am
   105    15    13   ar
   106    15    17   ar
   107    13    14   ar
   108   139   140    1
   109   148   147    1
   110    80    81    1
   111    83    81   ar
   112    81    82   ar
   113   140   143    1
   114   140   141    1
   115   120   119    1
   116   120   123    1
   117    17    18   ar
   118   143   144    1
   119   119   113   am
   120   145   144    1
   121   145   146    1
   122    14    16   ar
   123   147   146    2
   124   147   149    1
   125   114   113    2
   126   113   112    1
   127   108   107    2
   128   105   106    1
   129   141   150   am
   130   141   142    2
   131    18    16   ar
   132    18    19    1
   133   107   106    1
   134   107   111   am
   135   112   111    1
   136   112   115    1
   137   150   151    1
   138   106   109    1
   139   156   154    1
   140   115   116    1
   141   154   151    1
   142   154   155    1
   143   151   152    1
   144   165   166   ar
   145   165   163   ar
   146   109   110    1
   147   166   164   ar
   148   153   152    2
   149   163   162   ar
   150   116   117    2
   151   116   118   am
   152   164   162   ar
   153   162   161    1
   154   161   158    1
   155   157   158    1
   156   168   167    1
   157   168   169    1
   158   167   159   am
   159   158   159    1
   160   159   160    2
   161   170   169    2
