@<TRIPOS>MOLECULE
tmp/2z86A00.pdb
 196 191 0 0 0
SMALL
GASTEIGER

@<TRIPOS>ATOM
      1  N        -23.7840   51.4350  -38.6510 N.3    90  PRO90      -0.2102
      2  CA       -23.5670   50.0980  -39.2060 C.3    90  PRO90       0.1504
      3  C        -23.5460   50.2620  -40.7080 C.2    90  PRO90       0.2576
      4  O        -24.5060   50.7620  -41.2910 O.2    90  PRO90      -0.2718
      5  CB       -24.7960   49.3270  -38.7400 C.3    90  PRO90       0.0282
      6  CG       -25.1830   50.0320  -37.4760 C.3    90  PRO90       0.0208
      7  CD       -25.0360   51.4710  -37.8780 C.3    90  PRO90       0.0893
      8  N        -22.4560   49.8470  -41.3380 N.am   91  THR91      -0.1939
      9  CA       -22.3300   50.0020  -42.7760 C.3    91  THR91       0.2028
     10  C        -21.8400   48.7630  -43.5080 C.2    91  THR91       0.2642
     11  O        -20.8500   48.1440  -43.1100 O.2    91  THR91      -0.2714
     12  CB       -21.3560   51.1450  -43.1130 C.3    91  THR91       0.1808
     13  OG1      -21.7500   52.3390  -42.4240 O.3    91  THR91      -0.2208
     14  CG2      -21.3440   51.3980  -44.6000 C.3    91  THR91       0.0379
     15  N        -22.5440   48.3960  -44.5730 N.am   92  TYR92      -0.1973
     16  CA       -22.1300   47.2710  -45.3930 C.3    92  TYR92       0.1639
     17  C        -22.0350   47.8540  -46.7810 C.2    92  TYR92       0.2290
     18  O        -23.0130   47.8910  -47.5230 O.2    92  TYR92      -0.2864
     19  CB       -23.1390   46.1360  -45.3890 C.3    92  TYR92       0.0560
     20  CG       -22.6280   44.9400  -46.1570 C.ar   92  TYR92      -0.0198
     21  CD1      -21.5120   44.2300  -45.7100 C.ar   92  TYR92      -0.0009
     22  CD2      -23.2360   44.5310  -47.3430 C.ar   92  TYR92      -0.0009
     23  CE1      -21.0170   43.1440  -46.4220 C.ar   92  TYR92       0.0417
     24  CE2      -22.7420   43.4400  -48.0680 C.ar   92  TYR92       0.0417
     25  CZ       -21.6340   42.7560  -47.5990 C.ar   92  TYR92       0.1957
     26  OH       -21.1370   41.6890  -48.3070 O.3    92  TYR92      -0.2866
     27  N        -21.9650   50.7480  -48.9270 N.3    94  ARG94      -0.1245
     28  CA       -22.8950   51.4950  -49.7540 C.3    94  ARG94       0.1563
     29  C        -22.2580   52.8680  -49.7480 C.2    94  ARG94       0.2260
     30  O        -22.9040   53.8870  -49.5040 O.2    94  ARG94      -0.2867
     31  CB       -24.3030   51.5280  -49.1490 C.3    94  ARG94       0.0307
     32  CG       -25.1080   50.2450  -49.4070 C.3    94  ARG94       0.0489
     33  CD       -26.6260   50.4760  -49.4130 C.3    94  ARG94       0.2205
     34  NE       -27.2520   50.3410  -48.0960 N.pl3  94  ARG94      -0.0865
     35  CZ       -28.5500   50.5370  -47.8580 C.cat  94  ARG94       0.5346
     36  NH1      -29.3660   50.8810  -48.8500 N.pl3  94  ARG94       0.1354
     37  NH2      -29.0400   50.3840  -46.6310 N.pl3  94  ARG94       0.1354
     38  N        -19.2320   46.3650  -41.3420 N.3   121  ASP121     -0.1239
     39  CA       -19.3760   44.9170  -41.1780 C.3   121  ASP121      0.1674
     40  C        -18.6920   44.1420  -42.3040 C.2   121  ASP121      0.2266
     41  O        -19.3460   43.4060  -43.0450 O.2   121  ASP121     -0.2867
     42  CB       -20.8550   44.5250  -41.1290 C.3   121  ASP121      0.1410
     43  CG       -21.0640   43.0180  -40.9530 C.2   121  ASP121      0.3668
     44  OD1      -20.1010   42.2870  -40.6190 O.co2 121  ASP121     -0.2456
     45  OD2      -22.2060   42.5600  -41.1440 O.co2 121  ASP121     -0.2456
     46  N        -20.6440   37.0690  -42.8790 N.3   149  GLY149     -0.1210
     47  CA       -22.0770   36.9820  -43.0350 C.3   149  GLY149      0.1956
     48  C        -22.8170   38.2280  -42.6070 C.2   149  GLY149      0.2612
     49  O        -22.2270   39.2960  -42.4270 O.2   149  GLY149     -0.2717
     50  N        -24.1270   38.0860  -42.4500 N.am  150  TYR150     -0.1962
     51  CA       -24.9720   39.1950  -42.0460 C.3   150  TYR150      0.1771
     52  C        -24.7660   39.4020  -40.5570 C.2   150  TYR150      0.2619
     53  O        -25.5370   38.9020  -39.7420 O.2   150  TYR150     -0.2715
     54  CB       -26.4400   38.8670  -42.3270 C.3   150  TYR150      0.0574
     55  CG       -27.3380   40.0830  -42.3630 C.ar  150  TYR150     -0.0198
     56  CD1      -27.7460   40.6340  -43.5800 C.ar  150  TYR150     -0.0009
     57  CD2      -27.7600   40.6970  -41.1830 C.ar  150  TYR150     -0.0009
     58  CE1      -28.5560   41.7700  -43.6230 C.ar  150  TYR150      0.0417
     59  CE2      -28.5640   41.8330  -41.2090 C.ar  150  TYR150      0.0417
     60  CZ       -28.9610   42.3680  -42.4330 C.ar  150  TYR150      0.1957
     61  OH       -29.7480   43.5010  -42.4670 O.3   150  TYR150     -0.2866
     62  N        -23.7260   40.1390  -40.2000 N.am  151  GLN151     -0.1963
     63  CA       -23.4380   40.3700  -38.8010 C.3   151  GLN151      0.1733
     64  C        -23.8120   41.7550  -38.3220 C.2   151  GLN151      0.2616
     65  O        -23.0090   42.4440  -37.6970 O.2   151  GLN151     -0.2715
     66  CB       -21.9640   40.1020  -38.5460 C.3   151  GLN151      0.0408
     67  CG       -21.5850   38.6680  -38.8410 C.3   151  GLN151      0.0908
     68  CD       -22.4720   37.6640  -38.1080 C.2   151  GLN151      0.2608
     69  OE1      -22.7550   37.8140  -36.9160 O.2   151  GLN151     -0.2717
     70  NE2      -22.9030   36.6290  -38.8200 N.am  151  GLN151     -0.0878
     71  N        -25.0460   42.1520  -38.6080 N.am  152  LEU152     -0.1977
     72  CA       -25.5440   43.4610  -38.2160 C.3   152  LEU152      0.1596
     73  C        -25.3910   43.6670  -36.7110 C.2   152  LEU152      0.2287
     74  O        -24.9760   44.7370  -36.2540 O.2   152  LEU152     -0.2864
     75  CB       -27.0200   43.5870  -38.5930 C.3   152  LEU152      0.0297
     76  CG       -27.6070   44.9800  -38.8600 C.3   152  LEU152      0.0022
     77  CD1      -29.1050   44.9120  -38.6250 C.3   152  LEU152      0.0001
     78  CD2      -26.9720   46.0470  -37.9620 C.3   152  LEU152      0.0001
     79  N        -21.5650   44.0340  -35.4210 N.3   155  VAL155     -0.1231
     80  CA       -21.0190   45.3590  -35.7260 C.3   155  VAL155      0.1692
     81  C        -21.6100   46.4630  -34.8410 C.2   155  VAL155      0.2591
     82  O        -20.8760   47.2970  -34.3100 O.2   155  VAL155     -0.2718
     83  CB       -21.2010   45.7060  -37.2410 C.3   155  VAL155      0.0266
     84  CG1      -22.5130   46.4370  -37.4780 C.3   155  VAL155      0.0020
     85  CG2      -20.0280   46.5170  -37.7280 C.3   155  VAL155      0.0020
     86  N        -22.9260   46.4680  -34.6730 N.am  156  ARG156     -0.1980
     87  CA       -23.5530   47.4640  -33.8200 C.3   156  ARG156      0.1597
     88  C        -22.9140   47.4440  -32.4270 C.2   156  ARG156      0.2287
     89  O        -22.7200   48.4990  -31.8070 O.2   156  ARG156     -0.2864
     90  CB       -25.0490   47.1880  -33.6890 C.3   156  ARG156      0.0334
     91  CG       -25.8670   47.5420  -34.9050 C.3   156  ARG156      0.0492
     92  CD       -27.3240   47.1430  -34.7020 C.3   156  ARG156      0.2205
     93  NE       -28.1840   47.6310  -35.7760 N.pl3 156  ARG156     -0.0865
     94  CZ       -29.4380   47.2390  -35.9700 C.cat 156  ARG156      0.5346
     95  NH1      -29.9830   46.3420  -35.1590 N.pl3 156  ARG156      0.1354
     96  NH2      -30.1510   47.7510  -36.9680 N.pl3 156  ARG156      0.1354
     97  N        -28.3280   53.6170  -39.4870 N.3   172  ASP172     -0.1225
     98  CA       -27.8490   52.9180  -40.6780 C.3   172  ASP172      0.1805
     99  C        -27.1460   53.8900  -41.6190 C.2   172  ASP172      0.2598
    100  O        -27.4420   55.0910  -41.6160 O.2   172  ASP172     -0.2718
    101  CB       -29.0190   52.2540  -41.4000 C.3   172  ASP172      0.1424
    102  CG       -29.5770   51.0740  -40.6320 C.2   172  ASP172      0.3668
    103  OD1      -29.6170   51.1490  -39.3860 O.co2 172  ASP172     -0.2456
    104  OD2      -29.9820   50.0750  -41.2630 O.co2 172  ASP172     -0.2456
    105  N        -26.2230   53.3650  -42.4240 N.am  173  CYS173     -0.1956
    106  CA       -25.4510   54.1690  -43.3750 C.3   173  CYS173      0.1843
    107  C        -26.3180   54.8280  -44.4340 C.2   173  CYS173      0.2625
    108  O        -25.9210   55.8250  -45.0410 O.2   173  CYS173     -0.2714
    109  CB       -24.4060   53.3030  -44.0690 C.3   173  CYS173      0.0997
    110  SG       -25.1120   51.8510  -44.8830 S.3   173  CYS173     -0.0797
    111  N        -27.5000   54.2620  -44.6540 N.am  174  ASP174     -0.1971
    112  CA       -28.4300   54.7780  -45.6520 C.3   174  ASP174      0.1709
    113  C        -29.4590   55.7190  -45.0460 C.2   174  ASP174      0.2293
    114  O        -30.3840   56.1530  -45.7270 O.2   174  ASP174     -0.2864
    115  CB       -29.1560   53.6160  -46.3290 C.3   174  ASP174      0.1436
    116  CG       -30.1530   52.9370  -45.4090 C.2   174  ASP174      0.3671
    117  OD1      -29.7980   52.6280  -44.2560 O.co2 174  ASP174     -0.2456
    118  OD2      -31.2940   52.7030  -45.8410 O.co2 174  ASP174     -0.2456
    119  N        -38.8620   57.7750  -40.1250 N.3   201  ARG201     -0.1245
    120  CA       -38.1060   57.7910  -41.3590 C.3   201  ARG201      0.1563
    121  C        -39.0150   58.1160  -42.5290 C.2   201  ARG201      0.2260
    122  O        -40.2330   57.9440  -42.4530 O.2   201  ARG201     -0.2867
    123  CB       -37.4600   56.4290  -41.6020 C.3   201  ARG201      0.0307
    124  CG       -38.4590   55.2910  -41.6610 C.3   201  ARG201      0.0489
    125  CD       -37.8800   54.0650  -42.3410 C.3   201  ARG201      0.2205
    126  NE       -38.7200   52.8870  -42.1370 N.pl3 201  ARG201     -0.0865
    127  CZ       -38.8670   52.2650  -40.9680 C.cat 201  ARG201      0.5346
    128  NH1      -38.2260   52.7080  -39.8930 N.pl3 201  ARG201      0.1354
    129  NH2      -39.6510   51.1950  -40.8730 N.pl3 201  ARG201      0.1354
    130  N        -44.6320   53.0210  -41.9510 N.3   230  TRP230     -0.1241
    131  CA       -45.8060   52.4320  -41.3230 C.3   230  TRP230      0.1605
    132  C        -46.0220   52.8090  -39.8640 C.2   230  TRP230      0.2264
    133  O        -47.1590   52.8800  -39.3960 O.2   230  TRP230     -0.2867
    134  CB       -45.7670   50.9100  -41.4510 C.3   230  TRP230      0.0550
    135  CG       -44.8170   50.2430  -40.5220 C.ar  230  TRP230      0.0003
    136  CD1      -43.4830   50.0290  -40.7170 C.ar  230  TRP230      0.0946
    137  CD2      -45.1290   49.7070  -39.2360 C.ar  230  TRP230      0.0152
    138  NE1      -42.9450   49.3870  -39.6270 N.ar  230  TRP230     -0.2442
    139  CE2      -43.9360   49.1790  -38.7030 C.ar  230  TRP230      0.0810
    140  CE3      -46.3030   49.6230  -38.4790 C.ar  230  TRP230      0.0012
    141  CZ2      -43.8860   48.5750  -37.4460 C.ar  230  TRP230      0.0191
    142  CZ3      -46.2520   49.0230  -37.2360 C.ar  230  TRP230      0.0001
    143  CH2      -45.0520   48.5060  -36.7310 C.ar  230  TRP230      0.0015
    144  N        -37.1820   50.4490  -34.3760 N.3   252  SER252     -0.1202
    145  CA       -36.3760   50.1090  -35.5410 C.3   252  SER252      0.2020
    146  C        -34.9160   50.4980  -35.3070 C.2   252  SER252      0.2619
    147  O        -34.6110   51.6260  -34.9150 O.2   252  SER252     -0.2717
    148  CB       -36.9180   50.8100  -36.7860 C.3   252  SER252      0.2103
    149  OG       -38.1260   50.2010  -37.2100 O.3   252  SER252     -0.2182
    150  N        -34.0190   49.5530  -35.5680 N.am  253  GLY253     -0.1942
    151  CA       -32.6040   49.7810  -35.3410 C.3   253  GLY253      0.2014
    152  C        -31.8650   50.6640  -36.3170 C.2   253  GLY253      0.2639
    153  O        -30.6420   50.7630  -36.2480 O.2   253  GLY253     -0.2714
    154  N        -32.5930   51.3130  -37.2180 N.am  254  GLY254     -0.1954
    155  CA       -31.9510   52.1720  -38.2010 C.3   254  GLY254      0.1869
    156  C        -31.7830   53.6050  -37.7390 C.2   254  GLY254      0.2309
    157  O        -31.0090   54.3700  -38.3210 O.2   254  GLY254     -0.2863
    158  N        -35.5540   41.4600  -36.3890 N.3   278  GLY278     -0.1210
    159  CA       -36.4490   41.4490  -35.2500 C.3   278  GLY278      0.1956
    160  C        -35.5670   41.5840  -34.0280 C.2   278  GLY278      0.2612
    161  O        -36.0360   41.6070  -32.8850 O.2   278  GLY278     -0.2717
    162  N        -34.2630   41.6590  -34.2860 N.am  279  GLU279     -0.1965
    163  CA       -33.2860   41.8330  -33.2300 C.3   279  GLU279      0.1733
    164  C        -33.5500   43.1890  -32.5680 C.2   279  GLU279      0.2616
    165  O        -33.1470   43.4220  -31.4230 O.2   279  GLU279     -0.2715
    166  CB       -31.8680   41.7790  -33.7970 C.3   279  GLU279      0.0429
    167  CG       -31.7690   41.8040  -35.3180 C.3   279  GLU279      0.1163
    168  CD       -32.2820   43.0950  -35.9370 C.2   279  GLU279      0.3649
    169  OE1      -33.4830   43.1540  -36.2800 O.co2 279  GLU279     -0.2457
    170  OE2      -31.4870   44.0560  -36.0770 O.co2 279  GLU279     -0.2457
    171  N        -34.2380   44.0740  -33.2920 N.am  280  ASP280     -0.1957
    172  CA       -34.5940   45.3950  -32.7790 C.3   280  ASP280      0.1840
    173  C        -35.6510   45.2000  -31.7270 C.2   280  ASP280      0.2622
    174  O        -35.5460   45.6810  -30.6020 O.2   280  ASP280     -0.2715
    175  CB       -35.2300   46.2440  -33.8590 C.3   280  ASP280      0.1450
    176  CG       -34.4150   46.3020  -35.0890 C.2   280  ASP280      0.3671
    177  OD1      -34.9130   46.8820  -36.0690 O.co2 280  ASP280     -0.2456
    178  OD2      -33.2800   45.7760  -35.0740 O.co2 280  ASP280     -0.2456
    179  N        -36.6990   44.5040  -32.1360 N.am  281  ASN281     -0.1972
    180  CA       -37.8150   44.2300  -31.2640 C.3   281  ASN281      0.1688
    181  C        -37.3720   43.3810  -30.0870 C.2   281  ASN281      0.2292
    182  O        -37.9640   43.4630  -29.0130 O.2   281  ASN281     -0.2864
    183  CB       -38.9220   43.5280  -32.0500 C.3   281  ASN281      0.1181
    184  CG       -39.2480   44.2450  -33.3530 C.2   281  ASN281      0.2629
    185  OD1      -38.4640   44.2110  -34.3080 O.2   281  ASN281     -0.2716
    186  ND2      -40.3990   44.9130  -33.3920 N.am  281  ASN281     -0.0877
    187  N        -34.5500   57.4800  -45.4780 N.3   304  HIS304     -0.1241
    188  CA       -34.0490   56.1900  -45.9280 C.3   304  HIS304      0.1621
    189  C        -33.8030   56.1870  -47.4310 C.2   304  HIS304      0.2264
    190  O        -34.7380   56.0710  -48.2260 O.2   304  HIS304     -0.2867
    191  CB       -35.0620   55.1030  -45.5490 C.3   304  HIS304      0.0745
    192  CG       -34.5290   53.7090  -45.6370 C.ar  304  HIS304      0.0817
    193  ND1      -34.6520   52.9330  -46.7680 N.ar  304  HIS304     -0.2268
    194  CD2      -33.8900   52.9420  -44.7240 C.ar  304  HIS304      0.1154
    195  CE1      -34.1140   51.7470  -46.5470 C.ar  304  HIS304      0.1986
    196  NE2      -33.6450   51.7260  -45.3130 N.ar  304  HIS304     -0.2212
@<TRIPOS>BOND
     1    28    29    1
     2    28    31    1
     3    28    27    1
     4    29    30    2
     5    33    32    1
     6    33    34    1
     7    32    31    1
     8    36    35    1
     9    26    25    1
    10   190   189    2
    11    34    35    2
    12    24    25   ar
    13    24    22   ar
    14    35    37    1
    15    25    23   ar
    16    18    17    2
    17   189   188    1
    18    22    20   ar
    19    17    16    1
    20   193   195   ar
    21   193   192   ar
    22   195   196   ar
    23    23    21   ar
    24   115   112    1
    25   115   116    1
    26    20    21   ar
    27    20    19    1
    28   188   191    1
    29   188   187    1
    30   118   116   ar
    31   114   113    2
    32   112   113    1
    33   112   111    1
    34   192   191    1
    35   192   194   ar
    36   116   117   ar
    37    16    19    1
    38    16    15    1
    39   196   194   ar
    40   108   107    2
    41   110   109    1
    42   111   107   am
    43    14    12    1
    44    15    10   am
    45   107   106    1
    46   109   106    1
    47    58    56   ar
    48    58    60   ar
    49    56    55   ar
    50    10    11    2
    51    10     9    1
    52   106   105    1
    53    12     9    1
    54    12    13    1
    55    41    40    2
    56    47    46    1
    57    47    48    1
    58     9     8    1
    59    48    50   am
    60    48    49    2
    61   121   122    2
    62   121   120    1
    63    61    60    1
    64    50    51    1
    65    60    59   ar
    66   105    99   am
    67    55    54    1
    68    55    57   ar
    69   125   126    1
    70   125   124    1
    71    54    51    1
    72    40    39    1
    73   126   127    2
    74    51    52    1
    75   130   131    1
    76   124   123    1
    77    99   100    2
    78    99    98    1
    79   123   120    1
    80   134   131    1
    81   134   135    1
    82   101    98    1
    83   101   102    1
    84   120   119    1
    85    38    39    1
    86     8     3   am
    87   131   132    1
    88     4     3    2
    89   104   102   ar
    90    59    57   ar
    91    39    42    1
    92    45    43   ar
    93    42    43    1
    94   127   129    1
    95   127   128    1
    96    43    44   ar
    97   136   135   ar
    98   136   138   ar
    99     3     2    1
   100    98    97    1
   101   102   103   ar
   102    52    62   am
   103    52    53    2
   104   135   137   ar
   105    62    63    1
   106   132   133    2
   107   138   139   ar
   108   137   139   ar
   109   137   140   ar
   110     2     5    1
   111     2     1    1
   112    76    77    1
   113    76    75    1
   114    76    78    1
   115    67    66    1
   116    67    68    1
   117    70    68   am
   118    63    66    1
   119    63    64    1
   120     5     6    1
   121   139   141   ar
   122     1     7    1
   123    71    64   am
   124    71    72    1
   125    75    72    1
   126   140   142   ar
   127    64    65    2
   128   157   156    2
   129    72    73    1
   130   155   156    1
   131   155   154    1
   132    68    69    2
   133     7     6    1
   134    85    83    1
   135    84    83    1
   136   141   143   ar
   137    83    80    1
   138   142   143   ar
   139   154   152   am
   140   149   148    1
   141    96    94    1
   142   148   145    1
   143    73    74    2
   144   158   159    1
   145   152   153    2
   146   152   151    1
   147   169   168   ar
   148   170   168   ar
   149   177   176   ar
   150    94    93    2
   151    94    95    1
   152   168   167    1
   153    93    92    1
   154    80    79    1
   155    80    81    1
   156   150   151    1
   157   150   146   am
   158   145   146    1
   159   145   144    1
   160   167   166    1
   161   146   147    2
   162   159   160    1
   163   176   178   ar
   164   176   175    1
   165    91    92    1
   166    91    90    1
   167    81    86   am
   168    81    82    2
   169    86    87    1
   170   185   184    2
   171   162   160   am
   172   162   163    1
   173   160   161    2
   174   175   172    1
   175    87    90    1
   176    87    88    1
   177   166   163    1
   178   186   184   am
   179   184   183    1
   180   171   172    1
   181   171   164   am
   182   163   164    1
   183   172   173    1
   184   164   165    2
   185    88    89    2
   186   179   173   am
   187   179   180    1
   188   183   180    1
   189   173   174    2
   190   180   181    1
   191   181   182    2
