@<TRIPOS>MOLECULE
tmp/2z87A01.pdb
 103 96 0 0 0
SMALL
GASTEIGER

@<TRIPOS>ATOM
      1  N         11.8990   12.7370   28.1400 N.3   362  PRO362     -0.2116
      2  CA        10.4650   12.6550   28.4530 C.3   362  PRO362      0.1372
      3  C         10.1590   13.8430   29.3610 C.2   362  PRO362      0.2244
      4  O         10.7790   13.9990   30.4110 O.2   362  PRO362     -0.2868
      5  CB        10.3440   11.3160   29.1710 C.3   362  PRO362      0.0268
      6  CG        11.6790   11.1720   29.8350 C.3   362  PRO362      0.0207
      7  CD        12.6300   11.6120   28.7440 C.3   362  PRO362      0.0892
      8  N          7.3170   16.1070   31.5500 N.3   364  TYR364     -0.1241
      9  CA         6.0030   16.3100   32.1360 C.3   364  TYR364      0.1605
     10  C          6.0650   17.3180   33.2780 C.2   364  TYR364      0.2264
     11  O          6.5730   17.0240   34.3590 O.2   364  TYR364     -0.2867
     12  CB         5.3820   15.0100   32.6620 C.3   364  TYR364      0.0534
     13  CG         3.9150   15.1910   33.0510 C.ar  364  TYR364     -0.0201
     14  CD1        3.3100   14.3810   34.0150 C.ar  364  TYR364     -0.0009
     15  CD2        3.1320   16.1920   32.4540 C.ar  364  TYR364     -0.0009
     16  CE1        1.9650   14.5640   34.3800 C.ar  364  TYR364      0.0417
     17  CE2        1.7900   16.3840   32.8130 C.ar  364  TYR364      0.0417
     18  CZ         1.2150   15.5690   33.7750 C.ar  364  TYR364      0.1957
     19  OH        -0.1020   15.7710   34.1290 O.3   364  TYR364     -0.2866
     20  N          4.5060   15.3510   27.4320 N.3   392  ASP392     -0.1239
     21  CA         3.4860   14.3860   27.8210 C.3   392  ASP392      0.1674
     22  C          2.2670   15.0880   28.4110 C.2   392  ASP392      0.2266
     23  O          1.9400   14.9180   29.5920 O.2   392  ASP392     -0.2867
     24  CB         4.0730   13.3930   28.8340 C.3   392  ASP392      0.1410
     25  CG         3.1560   12.2180   29.0970 C.2   392  ASP392      0.3668
     26  OD1        2.7260   11.5750   28.1240 O.co2 392  ASP392     -0.2456
     27  OD2        2.8680   11.9280   30.2710 O.co2 392  ASP392     -0.2456
     28  N         -1.1220   13.3400   27.7600 N.3   419  ASN419     -0.1240
     29  CA        -0.4650   12.5180   28.7710 C.3   419  ASN419      0.1653
     30  C         -0.8490   11.0340   28.7610 C.2   419  ASN419      0.2266
     31  O         -2.0210   10.6850   28.8590 O.2   419  ASN419     -0.2867
     32  CB        -0.7310   13.0920   30.1570 C.3   419  ASN419      0.1155
     33  CG         0.0300   12.3580   31.2350 C.2   419  ASN419      0.2627
     34  OD1        0.9210   12.9190   31.8770 O.2   419  ASN419     -0.2716
     35  ND2       -0.3080   11.0850   31.4340 N.am  419  ASN419     -0.0877
     36  N          1.6770    8.7920   30.3250 N.3   421  GLY421     -0.1210
     37  CA         2.6410    8.2080   31.2330 C.3   421  GLY421      0.1956
     38  C          4.0680    8.3230   30.7390 C.2   421  GLY421      0.2611
     39  O          4.3160    8.7830   29.6260 O.2   421  GLY421     -0.2717
     40  N          5.0080    7.8880   31.5730 N.am  422  ILE422     -0.1979
     41  CA         6.4340    7.9490   31.2510 C.3   422  ILE422      0.1595
     42  C          6.8860    6.8680   30.2430 C.2   422  ILE422      0.2287
     43  O          7.7590    7.1200   29.4000 O.2   422  ILE422     -0.2864
     44  CB         7.3040    7.9280   32.5940 C.3   422  ILE422      0.0276
     45  CG1        8.4280    6.8980   32.5190 C.3   422  ILE422      0.0022
     46  CG2        6.4210    7.6420   33.8030 C.3   422  ILE422      0.0022
     47  CD1        9.6020    7.3270   31.6820 C.3   422  ILE422      0.0001
     48  N          5.7260    8.4590   26.7680 N.3   425  ALA425     -0.1245
     49  CA         6.4850    9.6730   26.5050 C.3   425  ALA425      0.1562
     50  C          7.7970    9.3380   25.8010 C.2   425  ALA425      0.2260
     51  O          8.1230    9.8970   24.7490 O.2   425  ALA425     -0.2867
     52  CB         6.7690   10.3940   27.8180 C.3   425  ALA425      0.0290
     53  N         16.3370   13.0140   31.7380 N.3   442  ASP442     -0.1225
     54  CA        15.0400   13.4200   32.2300 C.3   442  ASP442      0.1805
     55  C         14.9100   14.9330   32.3100 C.2   442  ASP442      0.2598
     56  O         15.8970   15.6710   32.3160 O.2   442  ASP442     -0.2718
     57  CB        14.7540   12.7520   33.5640 C.3   442  ASP442      0.1424
     58  CG        14.7030   11.2390   33.4410 C.2   442  ASP442      0.3668
     59  OD1       14.1140   10.7400   32.4550 O.co2 442  ASP442     -0.2456
     60  OD2       15.2430   10.5440   34.3260 O.co2 442  ASP442     -0.2456
     61  N         13.6630   15.3750   32.3530 N.am  443  SER443     -0.1938
     62  CA        13.3110   16.7820   32.3530 C.3   443  SER443      0.2055
     63  C         13.9290   17.7200   33.3850 C.2   443  SER443      0.2643
     64  O         14.4280   18.7880   33.0170 O.2   443  SER443     -0.2714
     65  CB        11.7860   16.8930   32.3960 C.3   443  SER443      0.2130
     66  OG        11.2350   16.1960   33.5020 O.3   443  SER443     -0.2179
     67  N         13.8890   17.3310   34.6630 N.am  444  ASP444     -0.1971
     68  CA        14.4210   18.1640   35.7460 C.3   444  ASP444      0.1709
     69  C         15.9250   18.0930   35.9950 C.2   444  ASP444      0.2293
     70  O         16.4830   18.9760   36.6510 O.2   444  ASP444     -0.2864
     71  CB        13.6730   17.8920   37.0670 C.3   444  ASP444      0.1436
     72  CG        13.4220   16.4100   37.3250 C.2   444  ASP444      0.3671
     73  OD1       12.5200   15.8350   36.6920 O.co2 444  ASP444     -0.2456
     74  OD2       14.1170   15.8190   38.1710 O.co2 444  ASP444     -0.2456
     75  N          6.1880    3.1020   37.3380 N.3   525  ASN525     -0.1240
     76  CA         7.6210    3.2960   37.5010 C.3   525  ASN525      0.1653
     77  C          8.3430    2.0080   37.1020 C.2   525  ASN525      0.2266
     78  O          7.7140    1.0700   36.6090 O.2   525  ASN525     -0.2867
     79  CB         7.9180    3.6350   38.9600 C.3   525  ASN525      0.1155
     80  CG         7.2250    2.6850   39.9230 C.2   525  ASN525      0.2627
     81  OD1        7.5050    1.4830   39.9380 O.2   525  ASN525     -0.2716
     82  ND2        6.3030    3.2190   40.7220 N.am  525  ASN525     -0.0877
     83  N         21.3880   14.7350   38.9860 N.3   551  ARG551     -0.1245
     84  CA        19.9800   14.3850   39.1480 C.3   551  ARG551      0.1563
     85  C         19.2700   15.0170   40.3440 C.2   551  ARG551      0.2260
     86  O         19.7280   14.8980   41.4780 O.2   551  ARG551     -0.2867
     87  CB        19.8320   12.8720   39.2710 C.3   551  ARG551      0.0307
     88  CG        18.4290   12.4690   39.6550 C.3   551  ARG551      0.0489
     89  CD        18.2710   10.9880   39.8770 C.3   551  ARG551      0.2205
     90  NE        16.8690   10.6720   40.1300 N.pl3 551  ARG551     -0.0865
     91  CZ        16.3850    9.4410   40.2540 C.cat 551  ARG551      0.5346
     92  NH1       17.1960    8.3940   40.1520 N.pl3 551  ARG551      0.1354
     93  NH2       15.0840    9.2590   40.4630 N.pl3 551  ARG551      0.1354
     94  N         14.2230   14.5940   44.0990 N.3   554  HIS554     -0.1241
     95  CA        12.8150   14.4010   44.4570 C.3   554  HIS554      0.1621
     96  C         12.4560   12.9360   44.7000 C.2   554  HIS554      0.2264
     97  O         12.4270   12.4770   45.8460 O.2   554  HIS554     -0.2867
     98  CB        11.8760   14.9940   43.3840 C.3   554  HIS554      0.0745
     99  CG        12.0000   14.3680   42.0240 C.ar  554  HIS554      0.0817
    100  ND1       11.1900   14.7320   40.9680 N.ar  554  HIS554     -0.2268
    101  CD2       12.8540   13.4350   41.5360 C.ar  554  HIS554      0.1154
    102  CE1       11.5410   14.0540   39.8900 C.ar  554  HIS554      0.1986
    103  NE2       12.5480   13.2600   40.2070 N.ar  554  HIS554     -0.2212
@<TRIPOS>BOND
     1    51    50    2
     2    50    49    1
     3    49    48    1
     4    49    52    1
     5    20    21    1
     6    28    29    1
     7    21    22    1
     8    21    24    1
     9    26    25   ar
    10     1     2    1
    11     1     7    1
    12    22    23    2
    13     2     5    1
    14     2     3    1
    15     7     6    1
    16    30    29    1
    17    30    31    2
    18    29    32    1
    19    24    25    1
    20    25    27   ar
    21     5     6    1
    22     3     4    2
    23    43    42    2
    24    39    38    2
    25    32    33    1
    26    42    41    1
    27    36    37    1
    28    38    37    1
    29    38    40   am
    30    33    35   am
    31    33    34    2
    32    41    40    1
    33    41    44    1
    34     8     9    1
    35    47    45    1
    36    53    54    1
    37     9    12    1
    38     9    10    1
    39    54    55    1
    40    54    57    1
    41    55    56    2
    42    55    61   am
    43    62    61    1
    44    62    65    1
    45    62    63    1
    46    65    66    1
    47    15    17   ar
    48    15    13   ar
    49    59    58   ar
    50    45    44    1
    51    44    46    1
    52    12    13    1
    53    17    18   ar
    54    64    63    2
    55    13    14   ar
    56    10    11    2
    57    63    67   am
    58    58    57    1
    59    58    60   ar
    60    18    19    1
    61    18    16   ar
    62    14    16   ar
    63    67    68    1
    64    68    69    1
    65    68    71    1
    66    69    70    2
    67    78    77    2
    68    73    72   ar
    69    71    72    1
    70    77    76    1
    71    72    74   ar
    72    75    76    1
    73    76    79    1
    74    79    80    1
    75    83    84    1
    76    84    87    1
    77    84    85    1
    78    87    88    1
    79    88    89    1
    80    89    90    1
    81   102   103   ar
    82   102   100   ar
    83    80    81    2
    84    80    82   am
    85    90    91    2
    86    92    91    1
    87   103   101   ar
    88    91    93    1
    89    85    86    2
    90   100    99   ar
    91   101    99   ar
    92    99    98    1
    93    98    95    1
    94    94    95    1
    95    95    96    1
    96    96    97    2
