@<TRIPOS>MOLECULE
tmp/2z87A00.pdb
 214 209 0 0 0
SMALL
GASTEIGER

@<TRIPOS>ATOM
      1  N         15.9040   -3.5420  -12.1470 N.3    92  PRO92      -0.2102
      2  CA        16.0570   -2.1900  -12.6800 C.3    92  PRO92       0.1504
      3  C         16.7200   -2.2650  -14.0470 C.2    92  PRO92       0.2576
      4  O         17.7880   -2.8430  -14.1840 O.2    92  PRO92      -0.2718
      5  CB        16.9500   -1.5240  -11.6470 C.3    92  PRO92       0.0282
      6  CG        16.5570   -2.2240  -10.3830 C.3    92  PRO92       0.0208
      7  CD        16.5210   -3.6490  -10.8170 C.3    92  PRO92       0.0893
      8  N         16.0940   -1.6750  -15.0560 N.am   93  THR93      -0.1939
      9  CA        16.6520   -1.7190  -16.4000 C.3    93  THR93       0.2028
     10  C         16.7630   -0.3620  -17.1050 C.2    93  THR93       0.2642
     11  O         15.8110    0.4230  -17.1230 O.2    93  THR93      -0.2714
     12  CB        15.8020   -2.6350  -17.3050 C.3    93  THR93       0.1808
     13  OG1       15.2470   -3.6920  -16.5220 O.3    93  THR93      -0.2208
     14  CG2       16.6470   -3.2300  -18.4080 C.3    93  THR93       0.0379
     15  N         17.9310   -0.0840  -17.6740 N.am   94  TYR94      -0.1973
     16  CA        18.1320    1.1320  -18.4490 C.3    94  TYR94       0.1639
     17  C         18.7860    0.6590  -19.7440 C.2    94  TYR94       0.2290
     18  O         20.0030    0.4940  -19.8310 O.2    94  TYR94      -0.2864
     19  CB        19.0390    2.1350  -17.7350 C.3    94  TYR94       0.0560
     20  CG        19.2610    3.3870  -18.5600 C.ar   94  TYR94      -0.0198
     21  CD1       18.4180    4.4940  -18.4500 C.ar   94  TYR94      -0.0009
     22  CD2       20.2840    3.4400  -19.5020 C.ar   94  TYR94      -0.0009
     23  CE1       18.5940    5.6290  -19.2670 C.ar   94  TYR94       0.0417
     24  CE2       20.4680    4.5600  -20.3230 C.ar   94  TYR94       0.0417
     25  CZ        19.6250    5.6480  -20.2040 C.ar   94  TYR94       0.1957
     26  OH        19.8390    6.7320  -21.0320 O.3    94  TYR94      -0.2866
     27  N         20.0290   -1.8010  -22.6430 N.3    96  ARG96      -0.1245
     28  CA        20.6190   -3.1430  -22.5980 C.3    96  ARG96       0.1563
     29  C         19.5540   -4.2460  -22.6540 C.2    96  ARG96       0.2260
     30  O         19.6140   -5.1880  -21.8590 O.2    96  ARG96      -0.2867
     31  CB        21.4020   -3.3580  -21.3080 C.3    96  ARG96       0.0307
     32  CG        22.5570   -2.4420  -21.0410 C.3    96  ARG96       0.0489
     33  CD        23.1540   -2.8540  -19.7110 C.3    96  ARG96       0.2205
     34  NE        24.1260   -1.9100  -19.1810 N.pl3  96  ARG96      -0.0865
     35  CZ        24.5320   -1.9010  -17.9140 C.cat  96  ARG96       0.5346
     36  NH1       24.0440   -2.7860  -17.0510 N.pl3  96  ARG96       0.1354
     37  NH2       25.4210   -1.0000  -17.5100 N.pl3  96  ARG96       0.1354
     38  N         13.5520    2.4930  -16.1930 N.3   123  ASP123     -0.1239
     39  CA        13.7630    3.8840  -15.8540 C.3   123  ASP123      0.1674
     40  C         14.0080    4.6620  -17.1390 C.2   123  ASP123      0.2266
     41  O         15.1470    4.8540  -17.5400 O.2   123  ASP123     -0.2867
     42  CB        14.9830    4.0200  -14.9530 C.3   123  ASP123      0.1410
     43  CG        15.4880    5.4320  -14.8790 C.2   123  ASP123      0.3668
     44  OD1       14.9040    6.2340  -14.1330 O.co2 123  ASP123     -0.2456
     45  OD2       16.4630    5.7510  -15.5850 O.co2 123  ASP123     -0.2456
     46  N         16.8800   11.5550  -16.1680 N.3   151  GLY151     -0.1210
     47  CA        18.1930   11.3440  -15.5830 C.3   151  GLY151      0.1956
     48  C         18.5500    9.9200  -15.1910 C.2   151  GLY151      0.2612
     49  O         18.1190    8.9510  -15.8200 O.2   151  GLY151     -0.2717
     50  N         19.3680    9.8190  -14.1490 N.am  152  TYR152     -0.1962
     51  CA        19.8340    8.5550  -13.5810 C.3   152  TYR152      0.1771
     52  C         18.9680    8.3450  -12.3180 C.2   152  TYR152      0.2619
     53  O         19.2700    8.8910  -11.2550 O.2   152  TYR152     -0.2715
     54  CB        21.3270    8.7070  -13.2250 C.3   152  TYR152      0.0574
     55  CG        21.9760    7.5000  -12.5800 C.ar  152  TYR152     -0.0198
     56  CD1       22.4620    6.4460  -13.3490 C.ar  152  TYR152     -0.0009
     57  CD2       22.0260    7.3740  -11.1900 C.ar  152  TYR152     -0.0009
     58  CE1       22.9670    5.2950  -12.7510 C.ar  152  TYR152      0.0417
     59  CE2       22.5270    6.2260  -10.5870 C.ar  152  TYR152      0.0417
     60  CZ        22.9890    5.1930  -11.3740 C.ar  152  TYR152      0.1957
     61  OH        23.4430    4.0480  -10.7770 O.3   152  TYR152     -0.2866
     62  N         17.8970    7.5580  -12.4240 N.am  153  GLN153     -0.1963
     63  CA        17.0050    7.3820  -11.2780 C.3   153  GLN153      0.1733
     64  C         16.8670    5.9960  -10.6910 C.2   153  GLN153      0.2616
     65  O         15.7720    5.6240  -10.2780 O.2   153  GLN153     -0.2715
     66  CB        15.6030    7.8770  -11.6280 C.3   153  GLN153      0.0408
     67  CG        15.5610    9.2580  -12.2710 C.3   153  GLN153      0.0908
     68  CD        16.1280   10.3560  -11.3850 C.2   153  GLN153      0.2608
     69  OE1       15.6150   10.6280  -10.2950 O.2   153  GLN153     -0.2717
     70  NE2       17.1910   10.9950  -11.8540 N.am  153  GLN153     -0.0878
     71  N         17.9670    5.2500  -10.6190 N.am  154  LEU154     -0.1977
     72  CA        17.9520    3.8890  -10.0820 C.3   154  LEU154      0.1596
     73  C         17.1890    3.7710   -8.7710 C.2   154  LEU154      0.2287
     74  O         16.3600    2.8810   -8.6070 O.2   154  LEU154     -0.2864
     75  CB        19.3780    3.3880   -9.8630 C.3   154  LEU154      0.0297
     76  CG        19.6680    1.8870   -9.9930 C.3   154  LEU154      0.0022
     77  CD1       20.9590    1.6150   -9.2830 C.3   154  LEU154      0.0001
     78  CD2       18.5650    1.0340   -9.4000 C.3   154  LEU154      0.0001
     79  N         13.5570    4.0860   -9.5980 N.3   157  VAL157     -0.1231
     80  CA        13.0190    2.9370  -10.3050 C.3   157  VAL157      0.1692
     81  C         12.9780    1.7320   -9.3720 C.2   157  VAL157      0.2591
     82  O         12.0340    0.9430   -9.4150 O.2   157  VAL157     -0.2718
     83  CB        13.8570    2.6170  -11.5650 C.3   157  VAL157      0.0266
     84  CG1       15.1510    1.9000  -11.2070 C.3   157  VAL157      0.0020
     85  CG2       13.0340    1.8070  -12.5150 C.3   157  VAL157      0.0020
     86  N         13.9980    1.5980   -8.5250 N.am  158  ARG158     -0.1980
     87  CA        14.0440    0.4990   -7.5700 C.3   158  ARG158      0.1597
     88  C         12.7650    0.5880   -6.7790 C.2   158  ARG158      0.2287
     89  O         12.0980   -0.4150   -6.5280 O.2   158  ARG158     -0.2864
     90  CB        15.2440    0.6300   -6.6170 C.3   158  ARG158      0.0334
     91  CG        16.4600   -0.1840   -7.0520 C.3   158  ARG158      0.0492
     92  CD        17.7500    0.0820   -6.2620 C.3   158  ARG158      0.2205
     93  NE        18.8560   -0.6580   -6.8780 N.pl3 158  ARG158     -0.0865
     94  CZ        20.1270   -0.6310   -6.4780 C.cat 158  ARG158      0.5346
     95  NH1       20.4970    0.1050   -5.4430 N.pl3 158  ARG158      0.1354
     96  NH2       21.0360   -1.3540   -7.1250 N.pl3 158  ARG158      0.1354
     97  N         20.1260   -6.1390  -10.6940 N.3   174  ASP174     -0.1225
     98  CA        20.4250   -5.2340  -11.7870 C.3   174  ASP174      0.1805
     99  C         20.1120   -6.0860  -13.0090 C.2   174  ASP174      0.2598
    100  O         20.2090   -7.3130  -12.9530 O.2   174  ASP174     -0.2718
    101  CB        21.9040   -4.8170  -11.7940 C.3   174  ASP174      0.1424
    102  CG        22.2300   -3.7370  -10.7560 C.2   174  ASP174      0.3668
    103  OD1       21.2960   -3.0890  -10.2120 O.co2 174  ASP174     -0.2456
    104  OD2       23.4410   -3.5330  -10.5010 O.co2 174  ASP174     -0.2456
    105  N         19.7270   -5.4440  -14.1030 N.am  175  CYS175     -0.1956
    106  CA        19.3780   -6.1690  -15.3110 C.3   175  CYS175      0.1843
    107  C         20.5370   -6.9490  -15.9050 C.2   175  CYS175      0.2625
    108  O         20.3190   -7.7970  -16.7520 O.2   175  CYS175     -0.2714
    109  CB        18.8050   -5.2070  -16.3570 C.3   175  CYS175      0.0997
    110  SG        19.9480   -3.9430  -16.9340 S.3   175  CYS175     -0.0797
    111  N         21.7600   -6.6740  -15.4570 N.am  176  ASP176     -0.1957
    112  CA        22.9560   -7.3610  -15.9670 C.3   176  ASP176      0.1840
    113  C         23.4710   -8.4320  -15.0150 C.2   176  ASP176      0.2621
    114  O         24.5510   -8.9920  -15.2090 O.2   176  ASP176     -0.2715
    115  CB        24.0700   -6.3470  -16.2440 C.3   176  ASP176      0.1450
    116  CG        24.4180   -5.5140  -15.0260 C.2   176  ASP176      0.3671
    117  OD1       23.5000   -5.1320  -14.2780 O.co2 176  ASP176     -0.2456
    118  OD2       25.6090   -5.2230  -14.8190 O.co2 176  ASP176     -0.2456
    119  N         22.6800   -8.7020  -13.9850 N.am  177  MET177     -0.1977
    120  CA        23.0040   -9.7030  -12.9870 C.3   177  MET177      0.1605
    121  C         22.2220  -10.9820  -13.2700 C.2   177  MET177      0.2287
    122  O         21.1000  -11.1600  -12.7940 O.2   177  MET177     -0.2864
    123  CB        22.6600   -9.1740  -11.5940 C.3   177  MET177      0.0413
    124  CG        23.6090   -8.1060  -11.1010 C.3   177  MET177      0.0598
    125  SD        25.2950   -8.7110  -10.9850 S.3   177  MET177     -0.1393
    126  CE        25.9870   -7.5330   -9.8890 C.3   177  MET177      0.0692
    127  N         28.8240  -12.3190   -6.3640 N.3   203  ARG203     -0.1245
    128  CA        28.7690  -12.2170   -7.8060 C.3   203  ARG203      0.1563
    129  C         30.0980  -12.5290   -8.4790 C.2   203  ARG203      0.2260
    130  O         31.1540  -12.4640   -7.8560 O.2   203  ARG203     -0.2867
    131  CB        28.3190  -10.8100   -8.1960 C.3   203  ARG203      0.0307
    132  CG        29.2140   -9.7240   -7.6320 C.3   203  ARG203      0.0489
    133  CD        28.9890   -8.3540   -8.2640 C.3   203  ARG203      0.2205
    134  NE        30.0100   -7.4160   -7.7930 N.pl3 203  ARG203     -0.0865
    135  CZ        29.9420   -6.7140   -6.6640 C.cat 203  ARG203      0.5346
    136  NH1       28.8880   -6.8090   -5.8650 N.pl3 203  ARG203      0.1354
    137  NH2       30.9590   -5.9410   -6.3130 N.pl3 203  ARG203      0.1354
    138  N         32.1500  -12.0880  -12.5390 N.3   205  TYR205     -0.1241
    139  CA        32.0840  -11.2850  -13.7510 C.3   205  TYR205      0.1605
    140  C         32.2900  -12.0920  -15.0180 C.2   205  TYR205      0.2264
    141  O         33.3180  -12.7390  -15.1930 O.2   205  TYR205     -0.2867
    142  CB        33.1110  -10.1680  -13.6760 C.3   205  TYR205      0.0534
    143  CG        32.8060   -9.1950  -12.5770 C.ar  205  TYR205     -0.0201
    144  CD1       31.9410   -8.1380  -12.7910 C.ar  205  TYR205     -0.0009
    145  CD2       33.3620   -9.3430  -11.3090 C.ar  205  TYR205     -0.0009
    146  CE1       31.6370   -7.2460  -11.7720 C.ar  205  TYR205      0.0417
    147  CE2       33.0650   -8.4580  -10.2870 C.ar  205  TYR205      0.0417
    148  CZ        32.2020   -7.4080  -10.5270 C.ar  205  TYR205      0.1957
    149  OH        31.9070   -6.4980   -9.5350 O.3   205  TYR205     -0.2866
    150  N         24.8210   -4.5010   -1.3510 N.3   269  SER269     -0.1217
    151  CA        24.8110   -3.9060   -2.6910 C.3   269  SER269      0.1889
    152  C         23.5500   -4.3440   -3.4310 C.2   269  SER269      0.2288
    153  O         23.4660   -5.4740   -3.8990 O.2   269  SER269     -0.2866
    154  CB        26.0380   -4.3330   -3.4910 C.3   269  SER269      0.2089
    155  OG        25.8930   -3.9470   -4.8540 O.3   269  SER269     -0.2183
    156  N         22.4180   -4.6190   -6.1600 N.3   271  GLY271     -0.1225
    157  CA        22.4190   -5.2520   -7.4710 C.3   271  GLY271      0.1811
    158  C         22.1160   -6.7440   -7.4200 C.2   271  GLY271      0.2280
    159  O         22.1360   -7.4410   -8.4370 O.2   271  GLY271     -0.2866
    160  N         24.4390    9.4590   -9.5350 N.3   292  HIS292     -0.1226
    161  CA        25.0970    8.2920  -10.1230 C.3   292  HIS292      0.1752
    162  C         26.3920    7.8550   -9.4160 C.2   292  HIS292      0.2596
    163  O         26.8880    6.7580   -9.6750 O.2   292  HIS292     -0.2718
    164  CB        25.4240    8.5530  -11.5980 C.3   292  HIS292      0.0759
    165  CG        26.5090    9.5730  -11.8070 C.ar  292  HIS292      0.0818
    166  ND1       26.2770   10.9320  -11.7650 N.ar  292  HIS292     -0.2268
    167  CD2       27.8420    9.4280  -12.0070 C.ar  292  HIS292      0.1154
    168  CE1       27.4180   11.5790  -11.9270 C.ar  292  HIS292      0.1986
    169  NE2       28.3840   10.6890  -12.0750 N.ar  292  HIS292     -0.2212
    170  N         26.9470    8.7040   -8.5470 N.am  293  TRP293     -0.1962
    171  CA        28.1870    8.3700   -7.8440 C.3   293  TRP293      0.1771
    172  C         27.9560    7.2910   -6.7990 C.2   293  TRP293      0.2620
    173  O         28.9030    6.6630   -6.3400 O.2   293  TRP293     -0.2715
    174  CB        28.8110    9.6060   -7.1780 C.3   293  TRP293      0.0590
    175  CG        29.0830   10.7490   -8.1240 C.ar  293  TRP293      0.0006
    176  CD1       28.2190   11.7530   -8.4690 C.ar  293  TRP293      0.0946
    177  CD2       30.2660   10.9560   -8.9060 C.ar  293  TRP293      0.0152
    178  NE1       28.7870   12.5670   -9.4210 N.ar  293  TRP293     -0.2442
    179  CE2       30.0420   12.1010   -9.7100 C.ar  293  TRP293      0.0810
    180  CE3       31.4900   10.2850   -9.0120 C.ar  293  TRP293      0.0012
    181  CZ2       30.9960   12.5870  -10.6070 C.ar  293  TRP293      0.0191
    182  CZ3       32.4390   10.7670   -9.9060 C.ar  293  TRP293      0.0001
    183  CH2       32.1850   11.9090  -10.6920 C.ar  293  TRP293      0.0015
    184  N         26.7000    7.0830   -6.4130 N.am  294  GLY294     -0.1954
    185  CA        26.3930    6.0430   -5.4480 C.3   294  GLY294      0.1869
    186  C         26.3580    6.4120   -3.9780 C.2   294  GLY294      0.2309
    187  O         26.4320    7.5850   -3.6020 O.2   294  GLY294     -0.2863
    188  N         23.8730    5.0720   -2.1120 N.3   296  GLU296     -0.1231
    189  CA        22.5130    4.6640   -1.8010 C.3   296  GLU296      0.1699
    190  C         22.4570    3.2640   -1.2120 C.2   296  GLU296      0.2592
    191  O         21.6230    2.9790   -0.3540 O.2   296  GLU296     -0.2718
    192  CB        21.6390    4.7510   -3.0630 C.3   296  GLU296      0.0402
    193  CG        22.4210    4.8270   -4.3780 C.3   296  GLU296      0.1161
    194  CD        23.2560    3.5830   -4.6370 C.2   296  GLU296      0.3649
    195  OE1       24.1540    3.6270   -5.5050 O.co2 296  GLU296     -0.2457
    196  OE2       23.0110    2.5540   -3.9770 O.co2 296  GLU296     -0.2457
    197  N         23.3470    2.3890   -1.6620 N.am  297  ASP297     -0.1974
    198  CA        23.3560    1.0360   -1.1440 C.3   297  ASP297      0.1709
    199  C         23.7340    1.0570    0.3310 C.2   297  ASP297      0.2293
    200  O         22.9550    0.6400    1.1840 O.2   297  ASP297     -0.2864
    201  CB        24.3170    0.1670   -1.9510 C.3   297  ASP297      0.1436
    202  CG        23.6920   -0.3360   -3.2470 C.2   297  ASP297      0.3671
    203  OD1       24.3810   -1.0260   -4.0310 O.co2 297  ASP297     -0.2456
    204  OD2       22.5010   -0.0430   -3.4820 O.co2 297  ASP297     -0.2456
    205  N         27.4750  -10.9020  -13.2350 N.3   321  HIS321     -0.1241
    206  CA        27.4550   -9.5590  -13.7640 C.3   321  HIS321      0.1621
    207  C         28.0150   -9.5840  -15.1750 C.2   321  HIS321      0.2264
    208  O         29.2050   -9.8530  -15.3800 O.2   321  HIS321     -0.2867
    209  CB        28.2960   -8.6590  -12.8640 C.3   321  HIS321      0.0745
    210  CG        28.2970   -7.2180  -13.2670 C.ar  321  HIS321      0.0817
    211  ND1       29.0100   -6.7460  -14.3490 N.ar  321  HIS321     -0.2268
    212  CD2       27.6870   -6.1420  -12.7180 C.ar  321  HIS321      0.1154
    213  CE1       28.8400   -5.4400  -14.4460 C.ar  321  HIS321      0.1986
    214  NE2       28.0430   -5.0490  -13.4680 N.ar  321  HIS321     -0.2212
@<TRIPOS>BOND
     1    29    28    1
     2    29    30    2
     3    27    28    1
     4    28    31    1
     5    31    32    1
     6    32    33    1
     7    26    25    1
     8    24    25   ar
     9    24    22   ar
    10    25    23   ar
    11    18    17    2
    12    17    16    1
    13    33    34    1
    14    22    20   ar
    15    23    21   ar
    16    34    35    2
    17    20    21   ar
    18    20    19    1
    19    16    19    1
    20    16    15    1
    21    14    12    1
    22    35    37    1
    23    35    36    1
    24    15    10   am
    25    41    40    2
    26    12    13    1
    27    12     9    1
    28    40    39    1
    29    11    10    2
    30    10     9    1
    31   110   109    1
    32   108   107    2
    33     9     8    1
    34   109   106    1
    35   115   112    1
    36   115   116    1
    37    38    39    1
    38    46    47    1
    39   112   111    1
    40   112   113    1
    41   107   111   am
    42   107   106    1
    43    39    42    1
    44    49    48    2
    45    45    43   ar
    46    47    48    1
    47   208   207    2
    48   106   105    1
    49   114   113    2
    50   141   140    2
    51    48    50   am
    52   207   206    1
    53     8     3   am
    54   116   118   ar
    55   116   117   ar
    56   140   139    1
    57   113   119   am
    58    42    43    1
    59    43    44   ar
    60   213   211   ar
    61   213   214   ar
    62   211   210   ar
    63     4     3    2
    64    50    51    1
    65   105    99   am
    66     3     2    1
    67   119   120    1
    68   206   205    1
    69   206   209    1
    70   139   142    1
    71   139   138    1
    72   142   143    1
    73    51    54    1
    74    51    52    1
    75   214   212   ar
    76    56    58   ar
    77    56    55   ar
    78   121   120    1
    79   121   122    2
    80   210   209    1
    81   210   212   ar
    82    54    55    1
    83    99   100    2
    84    99    98    1
    85   120   123    1
    86   144   143   ar
    87   144   146   ar
    88    58    60   ar
    89     2     1    1
    90     2     5    1
    91    55    57   ar
    92   143   145   ar
    93    85    83    1
    94    62    52   am
    95    62    63    1
    96    52    53    2
    97    67    66    1
    98    67    68    1
    99     1     7    1
   100   169   167   ar
   101   169   168   ar
   102   167   165   ar
   103   168   166   ar
   104    70    68   am
   105   165   166   ar
   106   165   164    1
   107   101    98    1
   108   101   102    1
   109    98    97    1
   110   146   148   ar
   111     5     6    1
   112    66    63    1
   113   164   161    1
   114   123   124    1
   115    83    84    1
   116    83    80    1
   117    68    69    2
   118    60    61    1
   119    60    59   ar
   120   145   147   ar
   121    63    64    1
   122    57    59   ar
   123   124   125    1
   124   125   126    1
   125     7     6    1
   126   102   104   ar
   127   102   103   ar
   128   183   181   ar
   129   183   182   ar
   130    64    71   am
   131    64    65    2
   132    71    72    1
   133   181   179   ar
   134   148   147   ar
   135   148   149    1
   136    80    79    1
   137    80    81    1
   138   161   160    1
   139   161   162    1
   140    72    75    1
   141    72    73    1
   142    76    75    1
   143    76    78    1
   144    76    77    1
   145   182   180   ar
   146   179   178   ar
   147   179   177   ar
   148   163   162    2
   149   178   176   ar
   150   162   170   am
   151    82    81    2
   152    81    86   am
   153   180   177   ar
   154   177   175   ar
   155    73    74    2
   156   170   171    1
   157    86    87    1
   158   129   130    2
   159   129   128    1
   160   176   175   ar
   161   159   158    2
   162   133   134    1
   163   133   132    1
   164   131   128    1
   165   131   132    1
   166   175   174    1
   167   171   174    1
   168   171   172    1
   169   128   127    1
   170   134   135    2
   171    87    88    1
   172    87    90    1
   173   157   158    1
   174   157   156    1
   175    96    94    1
   176    91    90    1
   177    91    92    1
   178    93    94    2
   179    93    92    1
   180   172   184   am
   181   172   173    2
   182    88    89    2
   183   135   137    1
   184   135   136    1
   185    94    95    1
   186   184   185    1
   187   195   194   ar
   188   185   186    1
   189   155   154    1
   190   194   193    1
   191   194   196   ar
   192   193   192    1
   193   203   202   ar
   194   186   187    2
   195   153   152    2
   196   154   151    1
   197   204   202   ar
   198   152   151    1
   199   202   201    1
   200   192   189    1
   201   151   150    1
   202   188   189    1
   203   201   198    1
   204   189   190    1
   205   197   190   am
   206   197   198    1
   207   190   191    2
   208   198   199    1
   209   199   200    2
