@<TRIPOS>MOLECULE
tmp/2z8cA01.pdb
 178 167 0 0 0
SMALL
GASTEIGER

@<TRIPOS>ATOM
      1  N         11.2050   33.0450   16.7960 N.3    17  ARG17      -0.1245
      2  CA        10.9810   31.9900   17.7720 C.3    17  ARG17       0.1563
      3  C         11.1900   32.4080   19.2280 C.2    17  ARG17       0.2260
      4  O         11.6290   33.5210   19.5220 O.2    17  ARG17      -0.2867
      5  CB        11.8640   30.7740   17.4490 C.3    17  ARG17       0.0307
      6  CG        13.3760   30.9580   17.6430 C.3    17  ARG17       0.0489
      7  CD        14.1100   29.6080   17.5790 C.3    17  ARG17       0.2205
      8  NE        15.3310   29.5850   18.3910 N.pl3  17  ARG17      -0.0865
      9  CZ        16.5160   30.0620   18.0150 C.cat  17  ARG17       0.5346
     10  NH1       16.6770   30.6110   16.8180 N.pl3  17  ARG17       0.1354
     11  NH2       17.5410   29.9890   18.8530 N.pl3  17  ARG17       0.1354
     12  N         13.1520   32.3280   22.5400 N.3    19  LEU19      -0.1231
     13  CA        14.5000   32.0530   23.0010 C.3    19  LEU19       0.1696
     14  C         14.4280   31.5820   24.4350 C.2    19  LEU19       0.2632
     15  O         15.2150   30.7480   24.8550 O.2    19  LEU19      -0.2714
     16  CB        15.3850   33.2980   22.9230 C.3    19  LEU19       0.0284
     17  CG        15.8840   33.7950   21.5640 C.3    19  LEU19       0.0019
     18  CD1       16.6480   35.1110   21.7510 C.3    19  LEU19       0.0001
     19  CD2       16.7610   32.7360   20.9210 C.3    19  LEU19       0.0001
     20  N         13.4800   32.1170   25.1910 N.am   20  GLY20      -0.1718
     21  CA        13.3550   31.7070   26.5770 C.2    20  GLY20       0.1480
     22  C         12.5200   32.6060   27.4720 C.2    20  GLY20       0.2820
     23  O         12.0630   33.6740   27.0670 O.2    20  GLY20      -0.2669
     24  N         12.3180   32.1480   28.7010 N.am   21  GLN21      -0.1929
     25  CA        11.5510   32.8770   29.6960 C.3    21  GLN21       0.1736
     26  C         12.5780   33.3270   30.7210 C.2    21  GLN21       0.2617
     27  O         13.4340   32.5530   31.1390 O.2    21  GLN21      -0.2715
     28  CB        10.5210   31.9500   30.3380 C.3    21  GLN21       0.0408
     29  CG         9.2290   32.6190   30.7560 C.3    21  GLN21       0.0908
     30  CD         8.0040   31.7460   30.4710 C.2    21  GLN21       0.2608
     31  OE1        7.7640   31.3390   29.3270 O.2    21  GLN21      -0.2717
     32  NE2        7.2250   31.4590   31.5120 N.am   21  GLN21      -0.0878
     33  N         12.5070   34.5850   31.1210 N.am   22  GLY22      -0.1955
     34  CA        13.4830   35.0700   32.0710 C.3    22  GLY22       0.1869
     35  C         12.8890   35.4550   33.4000 C.2    22  GLY22       0.2309
     36  O         11.7640   35.0690   33.7250 O.2    22  GLY22      -0.2863
     37  N         11.4020   36.1860   26.0990 N.3    27  VAL27      -0.1245
     38  CA        12.3840   36.6410   25.1290 C.3    27  VAL27       0.1561
     39  C         12.3060   35.8470   23.8170 C.2    27  VAL27       0.2260
     40  O         12.5260   34.6430   23.7940 O.2    27  VAL27      -0.2867
     41  CB        13.7920   36.5680   25.7390 C.3    27  VAL27       0.0252
     42  CG1       14.7900   37.2690   24.8600 C.3    27  VAL27       0.0019
     43  CG2       13.7730   37.2060   27.0970 C.3    27  VAL27       0.0019
     44  N         13.3050   35.6830   19.5120 N.3    29  GLU29      -0.1245
     45  CA        14.3490   36.0820   18.5870 C.3    29  GLU29       0.1567
     46  C         13.5620   36.6050   17.3830 C.2    29  GLU29       0.2260
     47  O         12.5670   35.9920   16.9820 O.2    29  GLU29      -0.2867
     48  CB        15.2150   34.8790   18.1670 C.3    29  GLU29       0.0388
     49  CG        16.4050   35.2450   17.2590 C.3    29  GLU29       0.1160
     50  CD        16.8100   34.1380   16.2810 C.2    29  GLU29       0.3649
     51  OE1       17.7020   34.3860   15.4580 O.co2  29  GLU29      -0.2457
     52  OE2       16.2370   33.0380   16.3320 O.co2  29  GLU29      -0.2457
     53  N         16.8310   40.6690   19.6940 N.3    45  ALA45      -0.1245
     54  CA        16.1650   39.9940   20.7930 C.3    45  ALA45       0.1562
     55  C         15.0220   40.8980   21.1980 C.2    45  ALA45       0.2260
     56  O         15.1870   42.1130   21.2720 O.2    45  ALA45      -0.2867
     57  CB        17.1140   39.8120   21.9490 C.3    45  ALA45       0.0290
     58  N         12.3120   41.4380   24.2260 N.3    47  LYS47      -0.1245
     59  CA        11.7590   41.0950   25.5310 C.3    47  LYS47       0.1561
     60  C         10.4030   41.7470   25.6860 C.2    47  LYS47       0.2260
     61  O         10.2480   42.9350   25.4120 O.2    47  LYS47      -0.2867
     62  CB        12.6740   41.5310   26.6820 C.3    47  LYS47       0.0271
     63  CG        12.1420   41.1010   28.0630 C.3    47  LYS47       0.0035
     64  CD        13.2070   41.2040   29.1580 C.3    47  LYS47       0.0206
     65  CE        14.4370   40.3660   28.8170 C.3    47  LYS47       0.1093
     66  NZ        15.5060   40.4370   29.8520 N.3    47  LYS47      -0.1314
     67  N         24.6900   44.8480   27.0640 N.3    77  VAL77      -0.1245
     68  CA        23.9360   44.6400   25.8370 C.3    77  VAL77       0.1561
     69  C         23.2210   45.9300   25.5450 C.2    77  VAL77       0.2260
     70  O         22.7080   46.5910   26.4390 O.2    77  VAL77      -0.2867
     71  CB        22.9110   43.5090   25.9460 C.3    77  VAL77       0.0252
     72  CG1       23.3960   42.4580   26.9450 C.3    77  VAL77       0.0019
     73  CG2       21.5620   44.0750   26.3040 C.3    77  VAL77       0.0019
     74  N         16.5250   44.5490   21.6210 N.3    93  MET93      -0.1230
     75  CA        17.9090   44.7230   22.0370 C.3    93  MET93       0.1702
     76  C         18.8150   43.8050   21.2430 C.2    93  MET93       0.2592
     77  O         18.3540   42.8270   20.6650 O.2    93  MET93      -0.2718
     78  CB        18.0490   44.5110   23.5580 C.3    93  MET93       0.0401
     79  CG        17.1430   43.4340   24.1540 C.3    93  MET93       0.0596
     80  SD        16.7400   43.7480   25.8900 S.3    93  MET93      -0.1393
     81  CE        17.9080   42.6940   26.7220 C.3    93  MET93       0.0692
     82  N         20.1010   44.1370   21.2060 N.am   94  GLU94      -0.1966
     83  CA        21.0600   43.3540   20.4390 C.3    94  GLU94       0.1733
     84  C         21.1530   41.8730   20.7870 C.2    94  GLU94       0.2616
     85  O         21.5420   41.4890   21.8800 O.2    94  GLU94      -0.2715
     86  CB        22.4590   43.9900   20.4970 C.3    94  GLU94       0.0429
     87  CG        23.0710   44.1420   21.8770 C.3    94  GLU94       0.1163
     88  CD        24.5750   44.3960   21.8090 C.2    94  GLU94       0.3649
     89  OE1       25.1690   44.7850   22.8190 O.co2  94  GLU94      -0.2457
     90  OE2       25.1530   44.1920   20.7470 O.co2  94  GLU94      -0.2457
     91  N         20.7870   41.0410   19.8260 N.am   95  LEU95      -0.1963
     92  CA        20.8370   39.6030   19.9960 C.3    95  LEU95       0.1728
     93  C         22.2800   39.1610   20.2270 C.2    95  LEU95       0.2616
     94  O         23.1950   39.6030   19.5360 O.2    95  LEU95      -0.2715
     95  CB        20.2800   38.9250   18.7400 C.3    95  LEU95       0.0311
     96  CG        20.4400   37.4140   18.5890 C.3    95  LEU95       0.0022
     97  CD1       19.5850   36.6950   19.6020 C.3    95  LEU95       0.0001
     98  CD2       20.0330   37.0100   17.1990 C.3    95  LEU95       0.0001
     99  N         22.4800   38.2900   21.2030 N.am   96  MET96      -0.1963
    100  CA        23.8050   37.7830   21.4890 C.3    96  MET96       0.1736
    101  C         23.8540   36.3450   20.9800 C.2    96  MET96       0.2616
    102  O         23.3510   35.4170   21.6070 O.2    96  MET96      -0.2715
    103  CB        24.0610   37.8660   22.9850 C.3    96  MET96       0.0427
    104  CG        23.9060   39.2780   23.5370 C.3    96  MET96       0.0599
    105  SD        25.3450   40.3810   23.3090 S.3    96  MET96      -0.1393
    106  CE        25.0200   41.1330   21.6820 C.3    96  MET96       0.0692
    107  N         24.4540   36.1960   19.8080 N.am   97  ALA97      -0.1963
    108  CA        24.6060   34.9230   19.1100 C.3    97  ALA97       0.1728
    109  C         24.7860   33.6510   19.9230 C.2    97  ALA97       0.2616
    110  O         24.3450   32.5790   19.4990 O.2    97  ALA97      -0.2715
    111  CB        25.7450   35.0310   18.1320 C.3    97  ALA97       0.0334
    112  N         25.4370   33.7430   21.0750 N.am   98  HIS98      -0.1959
    113  CA        25.6640   32.5420   21.8570 C.3    98  HIS98       0.1787
    114  C         24.8810   32.3970   23.1550 C.2    98  HIS98       0.2621
    115  O         25.3170   31.7070   24.0740 O.2    98  HIS98      -0.2715
    116  CB        27.1670   32.3720   22.0990 C.3    98  HIS98       0.0785
    117  CG        27.9370   31.9780   20.8700 C.ar   98  HIS98       0.0821
    118  ND1       27.7800   30.7560   20.2480 N.ar   98  HIS98      -0.2267
    119  CD2       28.8810   32.6390   20.1550 C.ar   98  HIS98       0.1154
    120  CE1       28.5940   30.6810   19.2090 C.ar   98  HIS98       0.1986
    121  NE2       29.2740   31.8100   19.1310 N.ar   98  HIS98      -0.2212
    122  N         23.7160   33.0290   23.2320 N.am   99  GLY99      -0.1940
    123  CA        22.8860   32.9090   24.4290 C.3    99  GLY99       0.2014
    124  C         23.4420   33.3760   25.7620 C.2    99  GLY99       0.2638
    125  O         24.3350   34.2160   25.8050 O.2    99  GLY99      -0.2714
    126  N         22.8990   32.8530   26.8580 N.am  100  ASP100     -0.1971
    127  CA        23.3840   33.2380   28.1760 C.3   100  ASP100      0.1709
    128  C         24.7250   32.5820   28.4510 C.2   100  ASP100      0.2293
    129  O         25.1310   31.6470   27.7670 O.2   100  ASP100     -0.2864
    130  CB        22.3730   32.8730   29.2740 C.3   100  ASP100      0.1436
    131  CG        21.9930   31.3900   29.2720 C.2   100  ASP100      0.3671
    132  OD1       21.3680   30.9210   28.2930 O.co2 100  ASP100     -0.2456
    133  OD2       22.3120   30.7100   30.2580 O.co2 100  ASP100     -0.2456
    134  N         24.2120   28.7740   30.1780 N.3   103  SER103     -0.1217
    135  CA        23.9530   27.7880   29.1530 C.3   103  SER103      0.1889
    136  C         25.1900   27.5590   28.2960 C.2   103  SER103      0.2288
    137  O         25.5350   26.4160   27.9790 O.2   103  SER103     -0.2866
    138  CB        22.8020   28.2600   28.2840 C.3   103  SER103      0.2089
    139  OG        23.2030   29.3690   27.4970 O.3   103  SER103     -0.2183
    140  N         23.6830   33.3430   34.0900 N.3   153  ARG153     -0.1231
    141  CA        22.4850   33.3480   33.2260 C.3   153  ARG153      0.1694
    142  C         22.1400   34.7150   32.6630 C.2   153  ARG153      0.2592
    143  O         21.5620   34.8120   31.5780 O.2   153  ARG153     -0.2718
    144  CB        21.2650   32.8520   33.9970 C.3   153  ARG153      0.0321
    145  CG        20.7170   33.8660   34.9910 C.3   153  ARG153      0.0489
    146  CD        20.3930   33.2050   36.3040 C.3   153  ARG153      0.2205
    147  NE        20.0620   34.1810   37.3330 N.pl3 153  ARG153     -0.0865
    148  CZ        20.0330   33.9180   38.6360 C.cat 153  ARG153      0.5346
    149  NH1       20.3190   32.7010   39.0780 N.pl3 153  ARG153      0.1354
    150  NH2       19.7210   34.8740   39.4980 N.pl3 153  ARG153      0.1354
    151  N         22.4670   35.7600   33.4190 N.am  154  ASN154     -0.1974
    152  CA        22.1900   37.1250   33.0010 C.3   154  ASN154      0.1688
    153  C         23.3330   37.7870   32.2790 C.2   154  ASN154      0.2292
    154  O         23.3650   39.0000   32.1200 O.2   154  ASN154     -0.2864
    155  CB        21.7990   37.9680   34.1850 C.3   154  ASN154      0.1181
    156  CG        20.5190   37.5270   34.7650 C.2   154  ASN154      0.2629
    157  OD1       19.6870   36.9750   34.0570 O.2   154  ASN154     -0.2716
    158  ND2       20.3250   37.7730   36.0510 N.am  154  ASN154     -0.0877
    159  N         25.3900   37.6010   28.6720 N.3   156  MET156     -0.1245
    160  CA        25.2510   37.0590   27.3350 C.3   156  MET156      0.1570
    161  C         26.6030   37.0230   26.6300 C.2   156  MET156      0.2261
    162  O         27.4810   37.8310   26.9020 O.2   156  MET156     -0.2867
    163  CB        24.2550   37.9030   26.5290 C.3   156  MET156      0.0387
    164  CG        22.9690   38.2740   27.2670 C.3   156  MET156      0.0595
    165  SD        21.9900   36.8630   27.7560 S.3   156  MET156     -0.1393
    166  CE        21.3340   37.4530   29.3380 C.3   156  MET156      0.0692
    167  N         23.5390   41.4610   30.9230 N.3   166  GLY166     -0.1210
    168  CA        22.1790   41.4600   30.3930 C.3   166  GLY166      0.1956
    169  C         21.1880   41.4430   31.5440 C.2   166  GLY166      0.2611
    170  O         21.5870   41.4580   32.7090 O.2   166  GLY166     -0.2717
    171  N         19.9000   41.4400   31.2330 N.am  167  ASP167     -0.1973
    172  CA        18.8630   41.3940   32.2640 C.3   167  ASP167      0.1709
    173  C         19.0820   42.3450   33.4370 C.2   167  ASP167      0.2293
    174  O         19.8620   42.0570   34.3450 O.2   167  ASP167     -0.2864
    175  CB        18.7290   39.9740   32.8060 C.3   167  ASP167      0.1436
    176  CG        17.5000   39.7950   33.6750 C.2   167  ASP167      0.3671
    177  OD1       17.4660   38.8440   34.4340 O.co2 167  ASP167     -0.2456
    178  OD2       16.5670   40.5880   33.5840 O.co2 167  ASP167     -0.2456
@<TRIPOS>BOND
     1    51    50   ar
     2    50    52   ar
     3    50    49    1
     4     1     2    1
     5    10     9    1
     6    47    46    2
     7    98    96    1
     8    49    48    1
     9    46    45    1
    10     5     6    1
    11     5     2    1
    12     7     6    1
    13     7     8    1
    14     2     3    1
    15     9     8    2
    16     9    11    1
    17   111   108    1
    18    48    45    1
    19    45    44    1
    20    96    95    1
    21    96    97    1
    22    95    92    1
    23   108   107    1
    24   108   109    1
    25   121   120   ar
    26   121   119   ar
    27   120   118   ar
    28     3     4    2
    29   110   109    2
    30    94    93    2
    31    53    54    1
    32   107   101   am
    33    91    92    1
    34    91    84   am
    35   109   112   am
    36    92    93    1
    37   119   117   ar
    38    93    99   am
    39   118   117   ar
    40    83    86    1
    41    83    84    1
    42    83    82    1
    43    86    87    1
    44    77    76    2
    45    90    88   ar
    46    84    85    2
    47    54    55    1
    48    54    57    1
    49   117   116    1
    50    19    17    1
    51   101   100    1
    52   101   102    2
    53   112   113    1
    54    55    56    2
    55    99   100    1
    56    82    76   am
    57    76    75    1
    58   100   103    1
    59    17    18    1
    60    17    16    1
    61    74    75    1
    62   106   105    1
    63    88    87    1
    64    88    89   ar
    65   113   116    1
    66   113   114    1
    67    75    78    1
    68    12    13    1
    69    16    13    1
    70   103   104    1
    71    13    14    1
    72   114   122   am
    73   114   115    2
    74   122   123    1
    75   105   104    1
    76    78    79    1
    77    40    39    2
    78    39    38    1
    79    79    80    1
    80    58    59    1
    81   123   124    1
    82    14    15    2
    83    14    20    1
    84    42    41    1
    85    38    41    1
    86    38    37    1
    87    20    21    2
    88    61    60    2
    89    59    60    1
    90    59    62    1
    91    69    68    1
    92    69    70    2
    93    41    43    1
    94   124   125    2
    95   124   126   am
    96    68    71    1
    97    68    67    1
    98    80    81    1
    99    71    73    1
   100    71    72    1
   101   163   164    1
   102   163   160    1
   103    21    22    1
   104   161   162    2
   105   161   160    1
   106    62    63    1
   107   126   127    1
   108    23    22    2
   109   164   165    1
   110   160   159    1
   111    22    24   am
   112   139   138    1
   113   165   166    1
   114   129   128    2
   115   137   136    2
   116    63    64    1
   117   127   128    1
   118   127   130    1
   119   138   135    1
   120   132   131   ar
   121   136   135    1
   122    24    25    1
   123    65    64    1
   124    65    66    1
   125   135   134    1
   126   131   130    1
   127   131   133   ar
   128    31    30    2
   129    25    28    1
   130    25    26    1
   131    28    29    1
   132   168   167    1
   133   168   169    1
   134    30    29    1
   135    30    32   am
   136    26    33   am
   137    26    27    2
   138    33    34    1
   139   171   169   am
   140   171   172    1
   141   169   170    2
   142   143   142    2
   143    34    35    1
   144   154   153    2
   145   172   175    1
   146   172   173    1
   147   153   152    1
   148   142   141    1
   149   142   151   am
   150   175   176    1
   151   152   151    1
   152   152   155    1
   153   141   144    1
   154   141   140    1
   155    35    36    2
   156   173   174    2
   157   178   176   ar
   158   176   177   ar
   159   144   145    1
   160   157   156    2
   161   155   156    1
   162   156   158   am
   163   145   146    1
   164   146   147    1
   165   147   148    2
   166   148   149    1
   167   148   150    1
