@<TRIPOS>MOLECULE
tmp/2z8cA00.pdb
 208 198 0 0 0
SMALL
GASTEIGER

@<TRIPOS>ATOM
      1  N         13.6550   36.2330   34.1620 N.3    23  SER23      -0.1217
      2  CA        13.2340   36.6990   35.4800 C.3    23  SER23       0.1889
      3  C         11.7580   37.1060   35.5780 C.2    23  SER23       0.2288
      4  O         11.1840   37.0760   36.6580 O.2    23  SER23      -0.2866
      5  CB        14.1420   37.8540   35.9470 C.3    23  SER23       0.2089
      6  OG        14.2970   38.8610   34.9550 O.3    23  SER23      -0.2183
      7  N         25.6080   31.0440   31.3450 N.3   102  LYS102     -0.1245
      8  CA        25.3670   29.7820   32.0330 C.3   102  LYS102      0.1561
      9  C         25.2450   28.6730   31.0040 C.2   102  LYS102      0.2260
     10  O         26.0710   27.7540   30.9550 O.2   102  LYS102     -0.2867
     11  CB        24.0760   29.8610   32.8280 C.3   102  LYS102      0.0271
     12  CG        23.6920   28.5670   33.5340 C.3   102  LYS102      0.0035
     13  CD        22.3360   28.7190   34.1790 C.3   102  LYS102      0.0206
     14  CE        22.1740   27.8180   35.3800 C.3   102  LYS102      0.1093
     15  NZ        21.0860   28.3030   36.2840 N.3   102  LYS102     -0.1314
     16  N         21.4970   41.3300   40.7510 N.3   149  ASP149     -0.1239
     17  CA        21.2300   40.0090   40.1950 C.3   149  ASP149      0.1674
     18  C         22.2480   39.6300   39.1330 C.2   149  ASP149      0.2266
     19  O         21.9050   39.2570   38.0030 O.2   149  ASP149     -0.2867
     20  CB        19.8150   39.9280   39.6270 C.3   149  ASP149      0.1410
     21  CG        19.4740   38.5420   39.1390 C.2   149  ASP149      0.3668
     22  OD1       20.0620   37.6000   39.6440 O.co2 149  ASP149     -0.2456
     23  OD2       18.6230   38.4120   38.2660 O.co2 149  ASP149     -0.2456
     24  N         23.6830   33.3430   34.0900 N.3   153  ARG153     -0.1231
     25  CA        22.4850   33.3480   33.2260 C.3   153  ARG153      0.1694
     26  C         22.1400   34.7150   32.6630 C.2   153  ARG153      0.2592
     27  O         21.5620   34.8120   31.5780 O.2   153  ARG153     -0.2718
     28  CB        21.2650   32.8520   33.9970 C.3   153  ARG153      0.0321
     29  CG        20.7170   33.8660   34.9910 C.3   153  ARG153      0.0489
     30  CD        20.3930   33.2050   36.3040 C.3   153  ARG153      0.2205
     31  NE        20.0620   34.1810   37.3330 N.pl3 153  ARG153     -0.0865
     32  CZ        20.0330   33.9180   38.6360 C.cat 153  ARG153      0.5346
     33  NH1       20.3190   32.7010   39.0780 N.pl3 153  ARG153      0.1354
     34  NH2       19.7210   34.8740   39.4980 N.pl3 153  ARG153      0.1354
     35  N         22.4670   35.7600   33.4190 N.am  154  ASN154     -0.1974
     36  CA        22.1900   37.1250   33.0010 C.3   154  ASN154      0.1688
     37  C         23.3330   37.7870   32.2790 C.2   154  ASN154      0.2292
     38  O         23.3650   39.0000   32.1200 O.2   154  ASN154     -0.2864
     39  CB        21.7990   37.9680   34.1850 C.3   154  ASN154      0.1181
     40  CG        20.5190   37.5270   34.7650 C.2   154  ASN154      0.2629
     41  OD1       19.6870   36.9750   34.0570 O.2   154  ASN154     -0.2716
     42  ND2       20.3250   37.7730   36.0510 N.am  154  ASN154     -0.0877
     43  N         19.9000   41.4400   31.2330 N.3   167  ASP167     -0.1239
     44  CA        18.8630   41.3940   32.2640 C.3   167  ASP167      0.1674
     45  C         19.0820   42.3450   33.4370 C.2   167  ASP167      0.2266
     46  O         19.8620   42.0570   34.3450 O.2   167  ASP167     -0.2867
     47  CB        18.7290   39.9740   32.8060 C.3   167  ASP167      0.1410
     48  CG        17.5000   39.7950   33.6750 C.2   167  ASP167      0.3668
     49  OD1       17.4660   38.8440   34.4340 O.co2 167  ASP167     -0.2456
     50  OD2       16.5670   40.5880   33.5840 O.co2 167  ASP167     -0.2456
     51  N         16.4430   43.6700   38.2780 N.3   170  MET170     -0.1245
     52  CA        16.5900   44.1130   39.6620 C.3   170  MET170      0.1570
     53  C         17.4420   45.3600   39.8710 C.2   170  MET170      0.2261
     54  O         17.5790   45.8440   40.9970 O.2   170  MET170     -0.2867
     55  CB        17.1500   42.9710   40.5020 C.3   170  MET170      0.0387
     56  CG        16.0740   42.0960   41.1040 C.3   170  MET170      0.0595
     57  SD        16.4230   40.3340   41.0100 S.3   170  MET170     -0.1393
     58  CE        15.4830   39.8970   39.4810 C.3   170  MET170      0.0692
     59  N         15.7660   47.0500   51.7420 N.3   179  LYS179     -0.1245
     60  CA        14.9750   46.0150   51.0750 C.3   179  LYS179      0.1561
     61  C         13.5370   46.4760   50.8490 C.2   179  LYS179      0.2260
     62  O         13.3190   47.5170   50.2270 O.2   179  LYS179     -0.2867
     63  CB        15.0000   44.6900   51.8440 C.3   179  LYS179      0.0271
     64  CG        14.3810   43.5630   51.0360 C.3   179  LYS179      0.0035
     65  CD        14.8770   43.6340   49.5930 C.3   179  LYS179      0.0206
     66  CE        13.7270   43.5740   48.5880 C.3   179  LYS179      0.1093
     67  NZ        12.8430   44.7680   48.6480 N.3   179  LYS179     -0.1314
     68  N         10.6380   43.6950   51.1190 N.3   181  GLY181     -0.1210
     69  CA         9.8430   42.5120   51.3880 C.3   181  GLY181      0.1956
     70  C          8.8680   42.1070   50.3060 C.2   181  GLY181      0.2612
     71  O          8.4050   42.9430   49.5310 O.2   181  GLY181     -0.2717
     72  N          8.5770   40.8060   50.2570 N.am  182  LYS182     -0.1965
     73  CA         7.6260   40.2260   49.3010 C.3   182  LYS182      0.1731
     74  C          8.1290   40.2320   47.8490 C.2   182  LYS182      0.2656
     75  O          7.5650   40.9130   46.9860 O.2   182  LYS182     -0.2711
     76  CB         6.2850   40.9780   49.4020 C.3   182  LYS182      0.0312
     77  CG         5.0720   40.2900   48.7730 C.3   182  LYS182      0.0038
     78  CD         3.8210   41.1570   48.9640 C.3   182  LYS182      0.0206
     79  CE         2.5400   40.4830   48.4720 C.3   182  LYS182      0.1093
     80  NZ         1.3440   41.3620   48.6880 N.3   182  LYS182     -0.1314
     81  N          9.1810   39.4640   47.5740 N.am  183  GLY183     -0.1716
     82  CA         9.7050   39.4240   46.2200 C.2   183  GLY183      0.1480
     83  C         10.6840   38.3000   45.9230 C.2   183  GLY183      0.2820
     84  O         11.3890   37.8060   46.8110 O.2   183  GLY183     -0.2669
     85  N         10.7220   37.8950   44.6570 N.am  184  LEU184     -0.1929
     86  CA        11.6220   36.8420   44.2130 C.3   184  LEU184      0.1731
     87  C         13.0710   37.2980   44.3370 C.2   184  LEU184      0.2616
     88  O         13.4300   38.3600   43.8280 O.2   184  LEU184     -0.2715
     89  CB        11.3430   36.4800   42.7520 C.3   184  LEU184      0.0311
     90  CG         9.9970   35.8650   42.3820 C.3   184  LEU184      0.0022
     91  CD1       10.0740   35.3240   40.9620 C.3   184  LEU184      0.0001
     92  CD2        9.6660   34.7420   43.3430 C.3   184  LEU184      0.0001
     93  N         13.8970   36.4960   45.0050 N.am  185  LEU185     -0.1964
     94  CA        15.3090   36.8230   45.1670 C.3   185  LEU185      0.1713
     95  C         16.2250   35.6090   44.9290 C.2   185  LEU185      0.2458
     96  O         15.8380   34.4630   45.1800 O.2   185  LEU185     -0.2730
     97  CB        15.5670   37.4100   46.5590 C.3   185  LEU185      0.0310
     98  CG        14.8060   38.6780   46.9760 C.3   185  LEU185      0.0022
     99  CD1       15.3620   39.1590   48.3180 C.3   185  LEU185      0.0001
    100  CD2       14.9460   39.7820   45.9270 C.3   185  LEU185      0.0001
    101  N         17.4490   35.8570   44.4180 N.am  186  PRO186     -0.2716
    102  CA        18.4880   34.8680   44.1130 C.3   186  PRO186      0.1536
    103  C         19.4290   34.7070   45.3230 C.2   186  PRO186      0.2598
    104  O         20.4780   35.3550   45.4160 O.2   186  PRO186     -0.2715
    105  CB        19.1830   35.4960   42.9200 C.3   186  PRO186      0.0310
    106  CG        19.2290   36.9280   43.3320 C.3   186  PRO186      0.0237
    107  CD        17.8320   37.1750   43.8720 C.3   186  PRO186      0.0939
    108  N         19.0430   33.8370   46.2460 N.am  187  VAL187     -0.1964
    109  CA        19.8100   33.6140   47.4570 C.3   187  VAL187      0.1727
    110  C         21.2250   33.1310   47.2070 C.2   187  VAL187      0.2616
    111  O         22.1630   33.6230   47.8270 O.2   187  VAL187     -0.2715
    112  CB        19.1160   32.5920   48.3640 C.3   187  VAL187      0.0290
    113  CG1       19.7170   32.6570   49.7560 C.3   187  VAL187      0.0023
    114  CG2       17.6180   32.8510   48.3990 C.3   187  VAL187      0.0023
    115  N         21.3820   32.1700   46.3030 N.am  188  ARG188     -0.1963
    116  CA        22.7040   31.6210   46.0090 C.3   188  ARG188      0.1729
    117  C         23.7100   32.6770   45.5510 C.2   188  ARG188      0.2616
    118  O         24.9160   32.4160   45.5340 O.2   188  ARG188     -0.2715
    119  CB        22.6270   30.5740   44.9090 C.3   188  ARG188      0.0348
    120  CG        21.4220   29.6930   44.9330 C.3   188  ARG188      0.0492
    121  CD        21.6330   28.4750   45.7760 C.3   188  ARG188      0.2205
    122  NE        20.6650   27.4530   45.4010 N.pl3 188  ARG188     -0.0865
    123  CZ        20.5040   26.3040   46.0450 C.cat 188  ARG188      0.5346
    124  NH1       21.2410   26.0170   47.1090 N.pl3 188  ARG188      0.1354
    125  NH2       19.6100   25.4330   45.6130 N.pl3 188  ARG188      0.1354
    126  N         23.2230   33.8590   45.1770 N.am  189  TRP189     -0.1960
    127  CA        24.1020   34.9120   44.6850 C.3   189  TRP189      0.1771
    128  C         24.1590   36.1940   45.4670 C.2   189  TRP189      0.2619
    129  O         24.9380   37.0780   45.1190 O.2   189  TRP189     -0.2715
    130  CB        23.7310   35.2750   43.2650 C.3   189  TRP189      0.0590
    131  CG        24.0300   34.2300   42.3070 C.ar  189  TRP189      0.0006
    132  CD1       25.1530   34.1160   41.5470 C.ar  189  TRP189      0.0946
    133  CD2       23.1700   33.1610   41.9240 C.ar  189  TRP189      0.0152
    134  NE1       25.0440   33.0410   40.7010 N.ar  189  TRP189     -0.2442
    135  CE2       23.8330   32.4360   40.9140 C.ar  189  TRP189      0.0810
    136  CE3       21.8970   32.7500   42.3300 C.ar  189  TRP189      0.0012
    137  CZ2       23.2610   31.3210   40.2970 C.ar  189  TRP189      0.0191
    138  CZ3       21.3280   31.6510   41.7130 C.ar  189  TRP189      0.0001
    139  CH2       22.0110   30.9470   40.7070 C.ar  189  TRP189      0.0015
    140  N         23.3330   36.3350   46.4920 N.am  190  MET190     -0.1977
    141  CA        23.3790   37.5720   47.2490 C.3   190  MET190      0.1605
    142  C         24.2440   37.4820   48.4890 C.2   190  MET190      0.2287
    143  O         24.4230   36.4070   49.0700 O.2   190  MET190     -0.2864
    144  CB        21.9730   38.0390   47.6010 C.3   190  MET190      0.0413
    145  CG        20.9980   36.9310   47.8600 C.3   190  MET190      0.0598
    146  SD        19.3950   37.4300   47.2310 S.3   190  MET190     -0.1393
    147  CE        18.9100   38.6510   48.4500 C.3   190  MET190      0.0692
    148  N         22.4210   41.7010   52.7610 N.3   194  SER194     -0.1202
    149  CA        21.1120   41.7420   52.1240 C.3   194  SER194      0.2020
    150  C         20.2450   40.5350   52.5050 C.2   194  SER194      0.2619
    151  O         19.0140   40.6160   52.4870 O.2   194  SER194     -0.2717
    152  CB        21.2570   41.8670   50.5980 C.3   194  SER194      0.2103
    153  OG        22.1630   40.9180   50.0680 O.3   194  SER194     -0.2182
    154  N         20.8730   39.4230   52.8760 N.am  195  LEU195     -0.1965
    155  CA        20.0950   38.2440   53.2680 C.3   195  LEU195      0.1728
    156  C         19.3660   38.4740   54.5870 C.2   195  LEU195      0.2616
    157  O         18.3300   37.8610   54.8410 O.2   195  LEU195     -0.2715
    158  CB        20.9780   36.9970   53.3650 C.3   195  LEU195      0.0311
    159  CG        21.2630   36.3040   52.0320 C.3   195  LEU195      0.0022
    160  CD1       22.2340   35.1600   52.2580 C.3   195  LEU195      0.0001
    161  CD2       19.9540   35.8020   51.4240 C.3   195  LEU195      0.0001
    162  N         19.9250   39.3320   55.4360 N.am  196  LYS196     -0.1977
    163  CA        19.2800   39.6710   56.6970 C.3   196  LYS196      0.1596
    164  C         18.8370   41.0810   56.4330 C.2   196  LYS196      0.2287
    165  O         17.7440   41.3110   55.9270 O.2   196  LYS196     -0.2864
    166  CB        20.2520   39.6530   57.8820 C.3   196  LYS196      0.0298
    167  CG        19.6090   40.0840   59.2120 C.3   196  LYS196      0.0038
    168  CD        18.3050   39.3180   59.4820 C.3   196  LYS196      0.0206
    169  CE        17.5420   39.8750   60.6830 C.3   196  LYS196      0.1093
    170  NZ        16.1580   39.3220   60.7600 N.3   196  LYS196     -0.1314
    171  N         18.1320   43.4840   54.4030 N.3   198  GLY198     -0.1225
    172  CA        17.9790   43.6970   52.9700 C.3   198  GLY198      0.1811
    173  C         18.6560   44.9980   52.5860 C.2   198  GLY198      0.2280
    174  O         18.4420   46.0200   53.2350 O.2   198  GLY198     -0.2866
    175  N         25.5880   24.1000   39.9840 N.3   222  GLN222     -0.1245
    176  CA        24.7160   24.9990   40.7200 C.3   222  GLN222      0.1566
    177  C         25.3020   25.4370   42.0530 C.2   222  GLN222      0.2260
    178  O         25.5380   24.6200   42.9390 O.2   222  GLN222     -0.2867
    179  CB        23.3570   24.3870   40.9800 C.3   222  GLN222      0.0367
    180  CG        22.6140   25.2100   41.9960 C.3   222  GLN222      0.0905
    181  CD        21.1280   25.0650   41.8940 C.2   222  GLN222      0.2608
    182  OE1       20.5280   25.3700   40.8570 O.2   222  GLN222     -0.2717
    183  NE2       20.5100   24.6020   42.9740 N.am  222  GLN222     -0.0878
    184  N         17.1620   26.1860   49.6080 N.3   229  ASN229     -0.1225
    185  CA        17.2750   27.6260   49.6950 C.3   229  ASN229      0.1785
    186  C         17.1580   28.1430   51.1290 C.2   229  ASN229      0.2597
    187  O         17.6460   29.2340   51.4430 O.2   229  ASN229     -0.2718
    188  CB        16.2340   28.2660   48.7860 C.3   229  ASN229      0.1169
    189  CG        16.3460   27.7700   47.3590 C.2   229  ASN229      0.2627
    190  OD1       17.3910   27.9120   46.7190 O.2   229  ASN229     -0.2716
    191  ND2       15.2730   27.1730   46.8540 N.am  229  ASN229     -0.0877
    192  N         16.5240   27.3670   52.0050 N.am  230  GLU230     -0.1979
    193  CA        16.3900   27.7830   53.4020 C.3   230  GLU230      0.1602
    194  C         17.7210   27.5010   54.0850 C.2   230  GLU230      0.2287
    195  O         18.1870   28.2850   54.9130 O.2   230  GLU230     -0.2864
    196  CB        15.2800   27.0100   54.1270 C.3   230  GLU230      0.0415
    197  CG        13.9340   26.9430   53.4080 C.3   230  GLU230      0.1163
    198  CD        13.7640   25.6660   52.5840 C.2   230  GLU230      0.3649
    199  OE1       14.3660   25.5550   51.4940 O.co2 230  GLU230     -0.2457
    200  OE2       13.0320   24.7740   53.0410 O.co2 230  GLU230     -0.2457
    201  N         20.3560   29.8140   52.9220 N.3   233  LEU233     -0.1245
    202  CA        19.9670   31.0710   53.5310 C.3   233  LEU233      0.1561
    203  C         20.6430   31.2070   54.8980 C.2   233  LEU233      0.2260
    204  O         21.3590   32.1820   55.1610 O.2   233  LEU233     -0.2867
    205  CB        18.4480   31.1100   53.6660 C.3   233  LEU233      0.0270
    206  CG        17.8130   32.4280   53.2260 C.3   233  LEU233      0.0019
    207  CD1       16.3240   32.2440   52.9820 C.3   233  LEU233      0.0001
    208  CD2       18.0860   33.4930   54.2830 C.3   233  LEU233      0.0001
@<TRIPOS>BOND
     1    10     9    2
     2     9     8    1
     3    43    44    1
     4     7     8    1
     5    27    26    2
     6     8    11    1
     7    38    37    2
     8    44    47    1
     9    44    45    1
    10    37    36    1
    11    26    25    1
    12    26    35   am
    13    47    48    1
    14    11    12    1
    15    36    35    1
    16    36    39    1
    17    25    28    1
    18    25    24    1
    19    45    46    2
    20    12    13    1
    21    50    48   ar
    22    48    49   ar
    23    28    29    1
    24    41    40    2
    25     1     2    1
    26    13    14    1
    27    39    40    1
    28    40    42   am
    29     6     5    1
    30    29    30    1
    31    14    15    1
    32     2     3    1
    33     2     5    1
    34     3     4    2
    35    30    31    1
    36    31    32    2
    37    19    18    2
    38    23    21   ar
    39    51    52    1
    40    32    33    1
    41    32    34    1
    42    18    17    1
    43    21    20    1
    44    21    22   ar
    45    58    57    1
    46    20    17    1
    47    52    53    1
    48    52    55    1
    49    53    54    2
    50   175   176    1
    51    17    16    1
    52   137   139   ar
    53   137   135   ar
    54    55    56    1
    55   134   135   ar
    56   134   132   ar
    57   139   138   ar
    58   176   179    1
    59   176   177    1
    60   182   181    2
    61   135   133   ar
    62    91    90    1
    63   179   180    1
    64    57    56    1
    65   132   131   ar
    66   138   136   ar
    67   181   180    1
    68   181   183   am
    69   133   131   ar
    70   133   136   ar
    71   177   178    2
    72   131   130    1
    73    90    89    1
    74    90    92    1
    75    89    86    1
    76   105   106    1
    77   105   102    1
    78   130   127    1
    79   106   107    1
    80    88    87    2
    81   107   101    1
    82   102   101    1
    83   102   103    1
    84    86    87    1
    85    86    85    1
    86    87    93   am
    87   101    95   am
    88    85    83   am
    89   127   126    1
    90   127   128    1
    91   119   120    1
    92   119   116    1
    93    95    94    1
    94    95    96    2
    95   120   121    1
    96    93    94    1
    97   129   128    2
    98    94    97    1
    99   126   117   am
   100   103   104    2
   101   103   108   am
   102   122   121    1
   103   122   123    2
   104   128   140   am
   105   118   117    2
   106   117   116    1
   107   125   123    1
   108    83    82    1
   109    83    84    2
   110   100    98    1
   111   116   115    1
   112   123   124    1
   113    82    81    2
   114   108   109    1
   115   115   110   am
   116   140   141    1
   117    97    98    1
   118   190   189    2
   119   191   189   am
   120    98    99    1
   121    75    74    2
   122   110   109    1
   123   110   111    2
   124   146   145    1
   125   146   147    1
   126   141   144    1
   127   141   142    1
   128   189   188    1
   129   109   112    1
   130    81    74    1
   131   144   145    1
   132    74    73    1
   133   112   114    1
   134   112   113    1
   135    79    80    1
   136    79    78    1
   137   142   143    2
   138    66    67    1
   139    66    65    1
   140    77    78    1
   141    77    76    1
   142   188   185    1
   143    73    76    1
   144    73    72    1
   145    71    70    2
   146    65    64    1
   147   184   185    1
   148   185   186    1
   149   153   152    1
   150    62    61    2
   151    72    70   am
   152    70    69    1
   153   152   149    1
   154    61    60    1
   155    64    63    1
   156    60    59    1
   157    60    63    1
   158    68    69    1
   159   186   187    2
   160   186   192   am
   161   161   159    1
   162   199   198   ar
   163   192   193    1
   164   159   160    1
   165   159   158    1
   166   149   150    1
   167   149   148    1
   168   151   150    2
   169   150   154   am
   170   198   200   ar
   171   198   197    1
   172   173   172    1
   173   173   174    2
   174   154   155    1
   175   201   202    1
   176   172   171    1
   177   207   206    1
   178   206   205    1
   179   206   208    1
   180   155   158    1
   181   155   156    1
   182   193   194    1
   183   193   196    1
   184   197   196    1
   185   202   205    1
   186   202   203    1
   187   194   195    2
   188   156   157    2
   189   156   162   am
   190   203   204    2
   191   162   163    1
   192   165   164    2
   193   164   163    1
   194   163   166    1
   195   166   167    1
   196   167   168    1
   197   168   169    1
   198   169   170    1
