@<TRIPOS>MOLECULE
tmp/2z8eB00.pdb
 161 153 0 0 0
SMALL
GASTEIGER

@<TRIPOS>ATOM
      1  N         39.8300  -23.4970  -13.3620 N.3    14  ARG14      -0.1231
      2  CA        38.4090  -23.5570  -13.5870 C.3    14  ARG14       0.1694
      3  C         37.7160  -22.3010  -13.0710 C.2    14  ARG14       0.2592
      4  O         36.6180  -22.3420  -12.5070 O.2    14  ARG14      -0.2718
      5  CB        37.8040  -24.8280  -12.9920 C.3    14  ARG14       0.0321
      6  CG        38.2600  -25.1650  -11.5590 C.3    14  ARG14       0.0489
      7  CD        37.5160  -26.4170  -11.1660 C.3    14  ARG14       0.2205
      8  NE        37.8270  -26.9220   -9.8220 N.pl3  14  ARG14      -0.0865
      9  CZ        37.1960  -26.5640   -8.7120 C.cat  14  ARG14       0.5346
     10  NH1       36.2640  -25.6180   -8.7380 N.pl3  14  ARG14       0.1354
     11  NH2       37.5080  -27.1470   -7.5420 N.pl3  14  ARG14       0.1354
     12  N         38.3830  -21.1800  -13.2880 N.am   15  LEU15      -0.1966
     13  CA        37.7700  -19.8600  -13.1530 C.3    15  LEU15       0.1713
     14  C         36.7390  -19.5940  -14.2570 C.2    15  LEU15       0.2458
     15  O         36.8860  -20.0800  -15.3710 O.2    15  LEU15      -0.2730
     16  CB        38.8530  -18.7680  -13.0990 C.3    15  LEU15       0.0310
     17  CG        39.8270  -18.8970  -11.9290 C.3    15  LEU15       0.0022
     18  CD1       40.8420  -17.7270  -11.8920 C.3    15  LEU15       0.0001
     19  CD2       39.1080  -19.1000  -10.5640 C.3    15  LEU15       0.0001
     20  N         35.6660  -18.8460  -13.9230 N.am   16  PRO16      -0.2727
     21  CA        34.5280  -18.7010  -14.8070 C.3    16  PRO16       0.1402
     22  C         34.8520  -18.0940  -16.1740 C.2    16  PRO16       0.2269
     23  O         34.2720  -18.5390  -17.1650 O.2    16  PRO16      -0.2865
     24  CB        33.5740  -17.7950  -14.0400 C.3    16  PRO16       0.0296
     25  CG        34.3960  -17.2220  -12.8610 C.3    16  PRO16       0.0237
     26  CD        35.4960  -18.1430  -12.6320 C.3    16  PRO16       0.0939
     27  N         33.0810  -28.7140  -12.6290 N.3    49  ALA49      -0.1231
     28  CA        34.1350  -28.3730  -11.6790 C.3    49  ALA49       0.1694
     29  C         34.6730  -29.5840  -10.9360 C.2    49  ALA49       0.2592
     30  O         35.8970  -29.7340  -10.7420 O.2    49  ALA49      -0.2718
     31  CB        33.6150  -27.3130  -10.6390 C.3    49  ALA49       0.0304
     32  N         33.7680  -30.4470  -10.4820 N.am   50  SER50      -0.1952
     33  CA        34.1770  -31.5940   -9.6400 C.3    50  SER50       0.1924
     34  C         34.9400  -32.6750  -10.3960 C.2    50  SER50       0.2314
     35  O         35.4940  -33.5950   -9.7820 O.2    50  SER50      -0.2863
     36  CB        32.9520  -32.2440   -8.9850 C.3    50  SER50       0.2116
     37  OG        32.0980  -32.7200  -10.0160 O.3    50  SER50      -0.2180
     38  N         44.5150  -25.5580  -10.4790 N.3    70  GLN70      -0.1245
     39  CA        43.5430  -25.2500   -9.4540 C.3    70  GLN70       0.1566
     40  C         43.0850  -26.5190   -8.7190 C.2    70  GLN70       0.2260
     41  O         42.7050  -27.4850   -9.3710 O.2    70  GLN70      -0.2867
     42  CB        42.3310  -24.5620  -10.0910 C.3    70  GLN70       0.0367
     43  CG        41.3180  -24.1730   -9.0160 C.3    70  GLN70       0.0905
     44  CD        40.1730  -23.3250   -9.5250 C.2    70  GLN70       0.2608
     45  OE1       40.2500  -22.7300  -10.6120 O.2    70  GLN70      -0.2717
     46  NE2       39.1090  -23.2560   -8.7560 N.am   70  GLN70      -0.0878
     47  N         39.2320  -28.3540   -0.2450 N.3    74  ALA74      -0.1231
     48  CA        38.5340  -29.6310    0.0070 C.3    74  ALA74       0.1694
     49  C         39.0770  -30.8260   -0.7880 C.2    74  ALA74       0.2591
     50  O         38.9260  -31.9710   -0.3270 O.2    74  ALA74      -0.2718
     51  CB        37.0010  -29.4790   -0.2350 C.3    74  ALA74       0.0304
     52  N         39.7040  -30.5530   -1.9400 N.am   75  GLU75      -0.1979
     53  CA        40.2880  -31.5480   -2.8500 C.3    75  GLU75       0.1602
     54  C         41.7530  -31.8670   -2.5780 C.2    75  GLU75       0.2287
     55  O         42.2260  -32.9470   -2.9400 O.2    75  GLU75      -0.2864
     56  CB        40.1840  -31.0610   -4.3010 C.3    75  GLU75       0.0415
     57  CG        38.7600  -30.7620   -4.6960 C.3    75  GLU75       0.1163
     58  CD        38.6100  -30.2900   -6.1240 C.2    75  GLU75       0.3649
     59  OE1       39.4070  -29.4300   -6.5960 O.co2  75  GLU75      -0.2457
     60  OE2       37.6520  -30.7610   -6.7500 O.co2  75  GLU75      -0.2457
     61  N         44.5470  -19.2800   -3.2800 N.3   118  GLN118     -0.1231
     62  CA        44.0070  -18.2910   -4.2090 C.3   118  GLN118      0.1698
     63  C         42.8100  -17.5040   -3.6960 C.2   118  GLN118      0.2592
     64  O         42.7710  -16.2800   -3.8000 O.2   118  GLN118     -0.2718
     65  CB        43.6570  -18.9250   -5.5650 C.3   118  GLN118      0.0381
     66  CG        43.3640  -17.9260   -6.6800 C.3   118  GLN118      0.0905
     67  CD        43.3500  -18.6030   -8.0340 C.2   118  GLN118      0.2608
     68  OE1       42.3690  -19.2210   -8.3970 O.2   118  GLN118     -0.2717
     69  NE2       44.4710  -18.5230   -8.7760 N.am  118  GLN118     -0.0878
     70  N         41.8080  -18.1860   -3.1710 N.am  119  ASP119     -0.1974
     71  CA        40.5810  -17.4940   -2.7620 C.3   119  ASP119      0.1709
     72  C         39.9440  -18.2490   -1.5790 C.2   119  ASP119      0.2293
     73  O         40.4290  -19.3240   -1.2180 O.2   119  ASP119     -0.2864
     74  CB        39.5890  -17.3640   -3.9070 C.3   119  ASP119      0.1436
     75  CG        38.9390  -18.7270   -4.2920 C.2   119  ASP119      0.3671
     76  OD1       39.7270  -19.6690   -4.4700 O.co2 119  ASP119     -0.2456
     77  OD2       37.6870  -18.8400   -4.3740 O.co2 119  ASP119     -0.2456
     78  N         24.2410  -29.0120   -5.2760 N.3   168  GLU168     -0.1245
     79  CA        25.3460  -28.4220   -4.5270 C.3   168  GLU168      0.1567
     80  C         25.4280  -28.9170   -3.0830 C.2   168  GLU168      0.2260
     81  O         26.1900  -28.3470   -2.3080 O.2   168  GLU168     -0.2867
     82  CB        25.2590  -26.8840   -4.5410 C.3   168  GLU168      0.0388
     83  CG        25.8160  -26.2890   -5.8510 C.3   168  GLU168      0.1160
     84  CD        27.3220  -26.5280   -6.0260 C.2   168  GLU168      0.3649
     85  OE1       28.0970  -26.2980   -5.0470 O.co2 168  GLU168     -0.2457
     86  OE2       27.7350  -26.9090   -7.1450 O.co2 168  GLU168     -0.2457
     87  N         28.8990  -29.5260   -1.4030 N.3   171  ASN171     -0.1240
     88  CA        29.7250  -28.3290   -1.1230 C.3   171  ASN171      0.1653
     89  C         29.0890  -27.3300   -0.1460 C.2   171  ASN171      0.2266
     90  O         29.7530  -26.8280    0.7840 O.2   171  ASN171     -0.2867
     91  CB        30.0290  -27.6320   -2.4550 C.3   171  ASN171      0.1155
     92  CG        30.6660  -28.5760   -3.4670 C.2   171  ASN171      0.2627
     93  OD1       31.5850  -29.3280   -3.1370 O.2   171  ASN171     -0.2716
     94  ND2       30.2400  -28.4750   -4.7140 N.am  171  ASN171     -0.0877
     95  N         22.7270  -25.1570  -10.9430 N.3   222  TRP222     -0.1241
     96  CA        23.2710  -24.9610  -12.3030 C.3   222  TRP222      0.1605
     97  C         22.3120  -25.1660  -13.4700 C.2   222  TRP222      0.2264
     98  O         22.7170  -25.0290  -14.6320 O.2   222  TRP222     -0.2867
     99  CB        24.6410  -25.6680  -12.5120 C.3   222  TRP222      0.0550
    100  CG        25.4660  -25.4520  -11.2870 C.ar  222  TRP222      0.0003
    101  CD1       25.7260  -26.3790  -10.3020 C.ar  222  TRP222      0.0946
    102  CD2       25.9840  -24.2020  -10.8110 C.ar  222  TRP222      0.0152
    103  NE1       26.4310  -25.7980   -9.2850 N.ar  222  TRP222     -0.2442
    104  CE2       26.5920  -24.4580   -9.5550 C.ar  222  TRP222      0.0810
    105  CE3       26.0150  -22.8920  -11.3320 C.ar  222  TRP222      0.0012
    106  CZ2       27.2230  -23.4560   -8.8070 C.ar  222  TRP222      0.0191
    107  CZ3       26.6420  -21.8960  -10.5940 C.ar  222  TRP222      0.0001
    108  CH2       27.2350  -22.1790   -9.3350 C.ar  222  TRP222      0.0015
    109  N         31.8640  -16.2900   -3.7680 N.3   243  TRP243     -0.1241
    110  CA        32.3420  -16.2350   -5.1620 C.3   243  TRP243      0.1605
    111  C         31.2150  -16.3110   -6.2110 C.2   243  TRP243      0.2264
    112  O         31.4760  -16.1610   -7.4270 O.2   243  TRP243     -0.2867
    113  CB        33.4240  -17.3050   -5.4140 C.3   243  TRP243      0.0550
    114  CG        33.0410  -18.7020   -4.8630 C.ar  243  TRP243      0.0003
    115  CD1       33.5480  -19.2950   -3.7520 C.ar  243  TRP243      0.0946
    116  CD2       32.1290  -19.6490   -5.4480 C.ar  243  TRP243      0.0152
    117  NE1       33.0040  -20.5450   -3.5900 N.ar  243  TRP243     -0.2442
    118  CE2       32.1210  -20.7910   -4.6020 C.ar  243  TRP243      0.0810
    119  CE3       31.3180  -19.6490   -6.6090 C.ar  243  TRP243      0.0012
    120  CZ2       31.3340  -21.9070   -4.8540 C.ar  243  TRP243      0.0191
    121  CZ3       30.5170  -20.7680   -6.8600 C.ar  243  TRP243      0.0001
    122  CH2       30.5340  -21.8830   -5.9760 C.ar  243  TRP243      0.0015
    123  N         28.2160  -14.5170  -10.9420 N.3   247  LEU247     -0.1245
    124  CA        27.4440  -15.5850  -11.5970 C.3   247  LEU247      0.1561
    125  C         25.9800  -15.3670  -11.3820 C.2   247  LEU247      0.2260
    126  O         25.1570  -15.4960  -12.2830 O.2   247  LEU247     -0.2867
    127  CB        27.8920  -16.9630  -11.0290 C.3   247  LEU247      0.0270
    128  CG        29.3950  -17.2310  -11.0070 C.3   247  LEU247      0.0019
    129  CD1       29.7660  -18.5640  -10.3710 C.3   247  LEU247      0.0001
    130  CD2       29.9710  -17.1400  -12.4600 C.3   247  LEU247      0.0001
    131  N         33.5910  -24.4470   -1.2590 N.3   279  GLY279     -0.1210
    132  CA        34.6810  -24.1700   -2.1630 C.3   279  GLY279      0.1956
    133  C         35.7360  -23.2440   -1.5610 C.2   279  GLY279      0.2612
    134  O         35.9600  -23.2300   -0.3070 O.2   279  GLY279     -0.2717
    135  N         36.3770  -22.4900   -2.4680 N.am  280  GLY280     -0.1942
    136  CA        37.6680  -21.8310   -2.2120 C.3   280  GLY280      0.2014
    137  C         38.7860  -22.7660   -2.6260 C.2   280  GLY280      0.2639
    138  O         38.7460  -23.9910   -2.3570 O.2   280  GLY280     -0.2714
    139  N         39.8100  -22.2130   -3.2640 N.am  281  SER281     -0.1949
    140  CA        40.8020  -23.0560   -3.9610 C.3   281  SER281      0.1924
    141  C         42.2220  -22.5540   -3.7870 C.2   281  SER281      0.2314
    142  O         42.4650  -21.3650   -3.5170 O.2   281  SER281     -0.2863
    143  CB        40.4740  -23.1840   -5.4740 C.3   281  SER281      0.2116
    144  OG        39.0900  -23.5060   -5.6850 O.3   281  SER281     -0.2180
    145  N         36.7320  -11.9950  -11.3660 N.3   312  GLN312     -0.1245
    146  CA        36.2630  -13.3980  -11.5420 C.3   312  GLN312      0.1566
    147  C         35.3450  -13.8520  -10.4040 C.2   312  GLN312      0.2260
    148  O         34.9430  -15.0210  -10.3500 O.2   312  GLN312     -0.2867
    149  CB        37.4380  -14.3480  -11.6460 C.3   312  GLN312      0.0367
    150  CG        38.3480  -14.0250  -12.8280 C.3   312  GLN312      0.0905
    151  CD        37.9910  -14.8200  -14.0790 C.2   312  GLN312      0.2608
    152  OE1       37.2880  -15.8390  -14.0140 O.2   312  GLN312     -0.2717
    153  NE2       38.4710  -14.3430  -15.2270 N.am  312  GLN312     -0.0878
    154  N         36.2690  -13.8200   -7.1320 N.3   314  LEU314     -0.1245
    155  CA        37.0340  -14.4640   -6.0880 C.3   314  LEU314      0.1561
    156  C         37.1010  -13.5470   -4.8860 C.2   314  LEU314      0.2260
    157  O         37.0990  -12.3160   -5.0440 O.2   314  LEU314     -0.2867
    158  CB        38.4490  -14.7920   -6.5820 C.3   314  LEU314      0.0270
    159  CG        38.5210  -15.7100   -7.8180 C.3   314  LEU314      0.0019
    160  CD1       39.8880  -16.1410   -8.0730 C.3   314  LEU314      0.0001
    161  CD2       37.6150  -16.9290   -7.6360 C.3   314  LEU314      0.0001
@<TRIPOS>BOND
     1    23    22    2
     2    22    21    1
     3    15    14    2
     4   153   151   am
     5    21    24    1
     6    21    20    1
     7    98    97    2
     8    14    20   am
     9    14    13    1
    10   151   152    2
    11   151   150    1
    12    24    25    1
    13    20    26    1
    14     2     1    1
    15     2     3    1
    16     2     5    1
    17    97    96    1
    18    12    13    1
    19    12     3   am
    20    13    16    1
    21    16    17    1
    22     3     4    2
    23     5     6    1
    24    25    26    1
    25   150   149    1
    26    27    28    1
    27    99    96    1
    28    99   100    1
    29   130   128    1
    30    96    95    1
    31   126   125    2
    32    17    18    1
    33    17    19    1
    34    28    29    1
    35    28    31    1
    36   149   146    1
    37   124   125    1
    38   124   127    1
    39   124   123    1
    40     6     7    1
    41   146   145    1
    42   146   147    1
    43   105   102   ar
    44   105   107   ar
    45   100   102   ar
    46   100   101   ar
    47     7     8    1
    48   127   128    1
    49   128   129    1
    50    29    30    2
    51    29    32   am
    52   102   104   ar
    53    45    44    2
    54   107   108   ar
    55    32    33    1
    56    38    39    1
    57   147   148    2
    58    34    35    2
    59    34    33    1
    60   101   103   ar
    61    42    39    1
    62    42    43    1
    63    37    36    1
    64     8     9    2
    65    33    36    1
    66   104   103   ar
    67   104   106   ar
    68    44    43    1
    69    44    46   am
    70    39    40    1
    71    41    40    2
    72   108   106   ar
    73    69    67   am
    74    10     9    1
    75     9    11    1
    76    68    67    2
    77   160   159    1
    78    67    66    1
    79   159   161    1
    80   159   158    1
    81   112   111    2
    82    86    84   ar
    83   154   155    1
    84   121   119   ar
    85   121   122   ar
    86    60    58   ar
    87    66    65    1
    88   119   116   ar
    89    59    58   ar
    90   158   155    1
    91   111   110    1
    92    58    57    1
    93   155   156    1
    94    84    83    1
    95    84    85   ar
    96   122   120   ar
    97    83    82    1
    98   144   143    1
    99    65    62    1
   100   143   140    1
   101   116   114   ar
   102   116   118   ar
   103   113   110    1
   104   113   114    1
   105    78    79    1
   106   110   109    1
   107   157   156    2
   108   114   115   ar
   109   120   118   ar
   110    94    92   am
   111    57    56    1
   112   118   117   ar
   113    82    79    1
   114    79    80    1
   115    76    75   ar
   116    77    75   ar
   117    56    53    1
   118    75    74    1
   119    62    63    1
   120    62    61    1
   121   140   141    1
   122   140   139    1
   123    74    71    1
   124    64    63    2
   125   141   142    2
   126   115   117   ar
   127    63    70   am
   128    92    93    2
   129    92    91    1
   130   139   137   am
   131    70    71    1
   132    80    81    2
   133    55    54    2
   134    53    54    1
   135    53    52    1
   136    71    72    1
   137   137   138    2
   138   137   136    1
   139   135   136    1
   140   135   133   am
   141    91    88    1
   142   132   133    1
   143   132   131    1
   144    52    49   am
   145    72    73    2
   146   133   134    2
   147    87    88    1
   148    88    89    1
   149    49    50    2
   150    49    48    1
   151    47    48    1
   152    51    48    1
   153    89    90    2
