@<TRIPOS>MOLECULE
tmp/2z8fA00.pdb
 219 207 0 0 0
SMALL
GASTEIGER

@<TRIPOS>ATOM
      1  N         26.3310    1.5450   10.0480 N.3    13  ARG13      -0.1231
      2  CA        25.6330    2.7840    9.7570 C.3    13  ARG13       0.1694
      3  C         26.4780    4.0110   10.1500 C.2    13  ARG13       0.2592
      4  O         25.9780    5.0100   10.6720 O.2    13  ARG13      -0.2718
      5  CB        24.2080    2.7940   10.3170 C.3    13  ARG13       0.0321
      6  CG        24.0970    2.3740   11.8040 C.3    13  ARG13       0.0489
      7  CD        22.6300    2.4490   12.2530 C.3    13  ARG13       0.2205
      8  NE        22.4020    1.9840   13.6230 N.pl3  13  ARG13      -0.0865
      9  CZ        22.4320    2.7560   14.7080 C.cat  13  ARG13       0.5346
     10  NH1       22.7630    4.0430   14.6270 N.pl3  13  ARG13       0.1354
     11  NH2       22.1270    2.1970   15.8950 N.pl3  13  ARG13       0.1354
     12  N         27.7780    3.9430    9.8340 N.am   14  LEU14      -0.1966
     13  CA        28.6380    5.0930    9.9870 C.3    14  LEU14       0.1713
     14  C         28.4070    6.0730    8.8380 C.2    14  LEU14       0.2458
     15  O         28.0180    5.6310    7.7390 O.2    14  LEU14      -0.2730
     16  CB        30.1200    4.6640   10.0880 C.3    14  LEU14       0.0310
     17  CG        30.4040    3.7190   11.2880 C.3    14  LEU14       0.0022
     18  CD1       31.8730    3.3000   11.3250 C.3    14  LEU14       0.0001
     19  CD2       29.9900    4.3080   12.6390 C.3    14  LEU14       0.0001
     20  N         28.6280    7.3740    9.0850 N.am   15  PRO15      -0.2727
     21  CA        28.1990    8.3920    8.1210 C.3    15  PRO15       0.1402
     22  C         28.9210    8.3690    6.7700 C.2    15  PRO15       0.2269
     23  O         28.2760    8.6250    5.7510 O.2    15  PRO15      -0.2865
     24  CB        28.4160    9.7240    8.8570 C.3    15  PRO15       0.0296
     25  CG        29.3990    9.4220    9.9720 C.3    15  PRO15       0.0237
     26  CD        29.1910    7.9710   10.3210 C.3    15  PRO15       0.0939
     27  N         17.2900    4.7970    7.2130 N.3    47  LYS47      -0.1231
     28  CA        17.4240    5.6010    8.4260 C.3    47  LYS47       0.1693
     29  C         17.8040    4.6830    9.5820 C.2    47  LYS47       0.2592
     30  O         17.4940    3.4970    9.5640 O.2    47  LYS47      -0.2718
     31  CB        16.1420    6.3650    8.7270 C.3    47  LYS47       0.0285
     32  CG        14.9670    5.5160    9.1670 C.3    47  LYS47       0.0035
     33  CD        13.7490    6.4030    9.4870 C.3    47  LYS47       0.0206
     34  CE        12.6040    6.1290    8.5300 C.3    47  LYS47       0.1093
     35  NZ        11.7810    4.9740    9.0390 N.3    47  LYS47      -0.1314
     36  N         18.4710    5.2450   10.5870 N.am   48  ALA48      -0.1966
     37  CA        19.1350    4.4200   11.6090 C.3    48  ALA48       0.1728
     38  C         18.2100    3.3990   12.2820 C.2    48  ALA48       0.2616
     39  O         18.5840    2.2280   12.4300 O.2    48  ALA48      -0.2715
     40  CB        19.8040    5.3050   12.6510 C.3    48  ALA48       0.0334
     41  N         16.9920    3.8190   12.6530 N.am   49  SER49      -0.1950
     42  CA        16.0680    2.9350   13.4050 C.3    49  SER49       0.1924
     43  C         15.5410    1.7510   12.5860 C.2    49  SER49       0.2314
     44  O         14.9480    0.8140   13.1290 O.2    49  SER49      -0.2863
     45  CB        14.8830    3.7330   13.9770 C.3    49  SER49       0.2116
     46  OG        14.0540    4.2560   12.9430 O.3    49  SER49      -0.2180
     47  N         15.6100   -3.6350   12.2260 N.3    53  LYS53      -0.1245
     48  CA        14.4560   -4.2500   11.5690 C.3    53  LYS53       0.1561
     49  C         14.9000   -5.0540   10.3380 C.2    53  LYS53       0.2260
     50  O         14.4540   -6.1930   10.1470 O.2    53  LYS53      -0.2867
     51  CB        13.4500   -3.1740   11.1730 C.3    53  LYS53       0.0271
     52  CG        12.9020   -2.3770   12.3600 C.3    53  LYS53       0.0035
     53  CD        11.9540   -1.2700   11.8960 C.3    53  LYS53       0.0206
     54  CE        11.1500   -0.6950   13.0620 C.3    53  LYS53       0.1093
     55  NZ        12.0020    0.1400   13.9740 N.3    53  LYS53      -0.1314
     56  N         26.4770   -3.3070   13.0230 N.3    69  GLN69      -0.1245
     57  CA        26.4450   -2.2730   14.0610 C.3    69  GLN69       0.1566
     58  C         25.1410   -2.4020   14.8580 C.2    69  GLN69       0.2260
     59  O         24.0660   -2.4820   14.2710 O.2    69  GLN69      -0.2867
     60  CB        26.5310   -0.8770   13.4380 C.3    69  GLN69       0.0367
     61  CG        26.5000    0.2350   14.4820 C.3    69  GLN69       0.0905
     62  CD        26.7220    1.5950   13.8840 C.2    69  GLN69       0.2608
     63  OE1       27.2270    1.7230   12.7580 O.2    69  GLN69      -0.2717
     64  NE2       26.3580    2.6330   14.6310 N.am   69  GLN69      -0.0878
     65  N         21.9010    0.4860   23.2610 N.3    73  ALA73      -0.1231
     66  CA        20.4650    0.5360   23.5860 C.3    73  ALA73       0.1694
     67  C         19.6470   -0.4940   22.8380 C.2    73  ALA73       0.2591
     68  O         18.5240   -0.8280   23.2510 O.2    73  ALA73      -0.2718
     69  CB        19.9110    1.9090   23.3180 C.3    73  ALA73       0.0304
     70  N         20.1910   -0.9680   21.7130 N.am   74  GLU74      -0.1979
     71  CA        19.5170   -1.9360   20.8580 C.3    74  GLU74       0.1602
     72  C         19.8910   -3.3790   21.1780 C.2    74  GLU74       0.2287
     73  O         19.1900   -4.3020   20.7690 O.2    74  GLU74      -0.2864
     74  CB        19.8960   -1.6910   19.3960 C.3    74  GLU74       0.0415
     75  CG        19.3640   -0.3750   18.8410 C.3    74  GLU74       0.1163
     76  CD        19.7590   -0.0990   17.3830 C.2    74  GLU74       0.3649
     77  OE1       20.9130   -0.4060   16.9810 O.co2  74  GLU74      -0.2457
     78  OE2       18.9070    0.4690   16.6480 O.co2  74  GLU74      -0.2457
     79  N         32.3010   -0.2510   20.1420 N.3   117  GLN117     -0.1231
     80  CA        32.9380    0.5670   19.1020 C.3   117  GLN117      0.1698
     81  C         33.1280    2.0240   19.5230 C.2   117  GLN117      0.2592
     82  O         34.2110    2.5920   19.3320 O.2   117  GLN117     -0.2718
     83  CB        32.1840    0.4480   17.7650 C.3   117  GLN117      0.0381
     84  CG        32.8830    1.2080   16.6410 C.3   117  GLN117      0.0905
     85  CD        32.2170    0.9510   15.2930 C.2   117  GLN117      0.2608
     86  OE1       31.1920    1.5820   14.9680 O.2   117  GLN117     -0.2717
     87  NE2       32.7680    0.0000   14.5190 N.am  117  GLN117     -0.0878
     88  N         32.0830    2.6340   20.0980 N.am  118  ASP118     -0.1974
     89  CA        32.1500    4.0650   20.4450 C.3   118  ASP118      0.1709
     90  C         31.2370    4.3920   21.6290 C.2   118  ASP118      0.2293
     91  O         30.4300    3.5500   22.0400 O.2   118  ASP118     -0.2864
     92  CB        31.7640    4.9460   19.2420 C.3   118  ASP118      0.1436
     93  CG        30.3010    4.7740   18.8280 C.2   118  ASP118      0.3671
     94  OD1       29.8370    3.6140   18.6520 O.co2 118  ASP118     -0.2456
     95  OD2       29.6220    5.8140   18.7110 O.co2 118  ASP118     -0.2456
     96  N         12.5220   14.5580   17.1120 N.3   166  ASP166     -0.1225
     97  CA        12.9310   13.3060   16.4620 C.3   166  ASP166      0.1805
     98  C         14.1260   12.6120   17.1480 C.2   166  ASP166      0.2597
     99  O         14.5890   11.5680   16.6860 O.2   166  ASP166     -0.2718
    100  CB        13.2650   13.5200   14.9700 C.3   166  ASP166      0.1424
    101  CG        14.3610   14.5630   14.7290 C.2   166  ASP166      0.3668
    102  OD1       14.6600   15.3830   15.6210 O.co2 166  ASP166     -0.2456
    103  OD2       14.9400   14.5900   13.6080 O.co2 166  ASP166     -0.2456
    104  N         14.5940   13.1980   18.2560 N.am  167  GLU167     -0.1979
    105  CA        15.6990   12.6390   19.0360 C.3   167  GLU167      0.1602
    106  C         15.3040   12.5080   20.4830 C.2   167  GLU167      0.2287
    107  O         16.1610   12.2290   21.3280 O.2   167  GLU167     -0.2864
    108  CB        16.9680   13.4920   18.9120 C.3   167  GLU167      0.0415
    109  CG        17.6730   13.2570   17.5430 C.3   167  GLU167      0.1163
    110  CD        18.2900   11.8480   17.4450 C.2   167  GLU167      0.3649
    111  OE1       18.5850   11.2310   18.5030 O.co2 167  GLU167     -0.2457
    112  OE2       18.4890   11.3560   16.3120 O.co2 167  GLU167     -0.2457
    113  N         16.4570    9.3010   22.3120 N.3   170  ASN170     -0.1240
    114  CA        17.9150    9.0980   22.4490 C.3   170  ASN170      0.1653
    115  C         18.5550   10.2030   23.2850 C.2   170  ASN170      0.2266
    116  O         19.2890    9.9260   24.2470 O.2   170  ASN170     -0.2867
    117  CB        18.5950    9.0190   21.0550 C.3   170  ASN170      0.1155
    118  CG        17.8870    8.0650   20.1280 C.2   170  ASN170      0.2627
    119  OD1       17.5730    6.9370   20.5070 O.2   170  ASN170     -0.2716
    120  ND2       17.6300    8.5110   18.8870 N.am  170  ASN170     -0.0877
    121  N         17.1800   16.1000   12.1240 N.3   221  TRP221     -0.1241
    122  CA        17.6270   15.5190   10.8580 C.3   221  TRP221      0.1605
    123  C         16.9510   16.1460    9.6480 C.2   221  TRP221      0.2264
    124  O         17.1970   15.7190    8.5170 O.2   221  TRP221     -0.2867
    125  CB        17.5530   13.9810   10.9150 C.3   221  TRP221      0.0550
    126  CG        18.3330   13.4950   12.1320 C.ar  221  TRP221      0.0003
    127  CD1       17.8110   13.0010   13.2920 C.ar  221  TRP221      0.0946
    128  CD2       19.7600   13.5690   12.3280 C.ar  221  TRP221      0.0152
    129  NE1       18.8220   12.7520   14.1960 N.ar  221  TRP221     -0.2442
    130  CE2       20.0280   13.0830   13.6300 C.ar  221  TRP221      0.0810
    131  CE3       20.8320   14.0020   11.5330 C.ar  221  TRP221      0.0012
    132  CZ2       21.3270   13.0120   14.1590 C.ar  221  TRP221      0.0191
    133  CZ3       22.1260   13.9240   12.0480 C.ar  221  TRP221      0.0001
    134  CH2       22.3600   13.4300   13.3540 C.ar  221  TRP221      0.0015
    135  N         29.3910   12.4270   19.1260 N.3   242  TRP242     -0.1241
    136  CA        29.6230   11.9330   17.7440 C.3   242  TRP242      0.1605
    137  C         29.0200   12.8730   16.6910 C.2   242  TRP242      0.2264
    138  O         29.2660   12.6890   15.4670 O.2   242  TRP242     -0.2867
    139  CB        29.1710   10.4680   17.5300 C.3   242  TRP242      0.0550
    140  CG        27.8120   10.1630   18.1120 C.ar  242  TRP242      0.0003
    141  CD1       27.5630    9.4970   19.2880 C.ar  242  TRP242      0.0946
    142  CD2       26.5340   10.5190   17.5730 C.ar  242  TRP242      0.0152
    143  NE1       26.2010    9.4290   19.5220 N.ar  242  TRP242     -0.2442
    144  CE2       25.5470   10.0520   18.4870 C.ar  242  TRP242      0.0810
    145  CE3       26.1150   11.2170   16.4070 C.ar  242  TRP242      0.0012
    146  CZ2       24.1700   10.2390   18.2740 C.ar  242  TRP242      0.0191
    147  CZ3       24.7430   11.4010   16.1990 C.ar  242  TRP242      0.0001
    148  CH2       23.7830   10.9100   17.1250 C.ar  242  TRP242      0.0015
    149  N         29.3760   16.0000   11.8800 N.3   246  LEU246     -0.1245
    150  CA        28.0560   16.1640   11.2650 C.3   246  LEU246      0.1561
    151  C         27.5660   17.6030   11.3660 C.2   246  LEU246      0.2260
    152  O         27.0810   18.1990   10.3940 O.2   246  LEU246     -0.2867
    153  CB        27.0650   15.2030   11.9240 C.3   246  LEU246      0.0270
    154  CG        27.4770   13.7190   12.0230 C.3   246  LEU246      0.0019
    155  CD1       26.3300   12.9200   12.6610 C.3   246  LEU246      0.0001
    156  CD2       27.8700   13.1070   10.6640 C.3   246  LEU246      0.0001
    157  N         23.7790    9.1150   24.6280 N.3   277  ASP277     -0.1225
    158  CA        22.8690    9.3040   23.5200 C.3   277  ASP277      0.1805
    159  C         23.5030    8.4790   22.3970 C.2   277  ASP277      0.2598
    160  O         24.5450    8.8370   21.8780 O.2   277  ASP277     -0.2718
    161  CB        22.8070   10.7870   23.1550 C.3   277  ASP277      0.1424
    162  CG        22.0290   11.0740   21.8490 C.2   277  ASP277      0.3668
    163  OD1       21.6660   10.1230   21.0990 O.co2 277  ASP277     -0.2456
    164  OD2       21.7570   12.2910   21.6380 O.co2 277  ASP277     -0.2456
    165  N         22.9110    7.3440   22.0610 N.am  278  GLY278     -0.1942
    166  CA        23.5920    6.4150   21.1490 C.3   278  GLY278      0.2014
    167  C         24.8960    5.8390   21.6990 C.2   278  GLY278      0.2639
    168  O         25.0660    5.6540   22.9160 O.2   278  GLY278     -0.2714
    169  N         25.8380    5.5750   20.8060 N.am  279  GLY279     -0.1939
    170  CA        26.9830    4.7300   21.1410 C.3   279  GLY279      0.2014
    171  C         26.6420    3.3080   20.7290 C.2   279  GLY279      0.2639
    172  O         25.5130    2.7930   20.9770 O.2   279  GLY279     -0.2714
    173  N         27.5900    2.6590   20.0500 N.am  280  SER280     -0.1949
    174  CA        27.3150    1.3620   19.4610 C.3   280  SER280      0.1924
    175  C         28.3890    0.3000   19.6380 C.2   280  SER280      0.2314
    176  O         29.5850    0.6070   19.8160 O.2   280  SER280     -0.2863
    177  CB        27.0790    1.5290   17.9370 C.3   280  SER280      0.2116
    178  OG        26.1500    2.5690   17.6270 O.3   280  SER280     -0.2180
    179  N         35.2020    9.6190   11.5530 N.3   311  GLN311     -0.1245
    180  CA        33.7510    9.3920   11.3890 C.3   311  GLN311      0.1566
    181  C         32.9250   10.0690   12.4880 C.2   311  GLN311      0.2260
    182  O         31.6860    9.9990   12.4850 O.2   311  GLN311     -0.2867
    183  CB        33.4650    7.8840   11.3950 C.3   311  GLN311      0.0367
    184  CG        34.0010    7.1050   10.1670 C.3   311  GLN311      0.0905
    185  CD        33.1040    7.1660    8.9280 C.2   311  GLN311      0.2608
    186  OE1       31.8930    7.4390    8.9970 O.2   311  GLN311     -0.2717
    187  NE2       33.7070    6.8470    7.7630 N.am  311  GLN311     -0.0878
    188  N         33.4630    9.3370   15.7290 N.3   313  LEU313     -0.1245
    189  CA        33.3500    8.4250   16.8780 C.3   313  LEU313      0.1561
    190  C         34.2560    8.8200   18.0140 C.2   313  LEU313      0.2260
    191  O         35.3800    9.3060   17.8060 O.2   313  LEU313     -0.2867
    192  CB        33.6520    6.9810   16.4790 C.3   313  LEU313      0.0270
    193  CG        32.7970    6.4680   15.3160 C.3   313  LEU313      0.0019
    194  CD1       33.0590    4.9990   15.1110 C.3   313  LEU313      0.0001
    195  CD2       31.2950    6.7930   15.4830 C.3   313  LEU313      0.0001
    196  N         13.2930    0.3040   21.5760 N.3   358  SER358     -0.1217
    197  CA        12.9690    0.9810   20.3260 C.3   358  SER358      0.1889
    198  C         11.5330    1.5140   20.2880 C.2   358  SER358      0.2288
    199  O         11.2820    2.5960   19.7390 O.2   358  SER358     -0.2866
    200  CB        13.2310    0.0350   19.1590 C.3   358  SER358      0.2089
    201  OG        12.3010   -1.0300   19.1600 O.3   358  SER358     -0.2183
    202  N         11.4420    4.6040   22.6030 N.3   361  ALA361     -0.1231
    203  CA        11.9800    5.7430   21.8920 C.3   361  ALA361      0.1694
    204  C         11.0000    6.2680   20.8300 C.2   361  ALA361      0.2591
    205  O         10.8320    7.4880   20.6880 O.2   361  ALA361     -0.2718
    206  CB        13.3240    5.3590   21.2770 C.3   361  ALA361      0.0304
    207  N         10.3350    5.3490   20.1290 N.am  362  ALA362     -0.1980
    208  CA         9.3290    5.7210   19.1320 C.3   362  ALA362      0.1597
    209  C          8.2030    6.5430   19.7710 C.2   362  ALA362      0.2287
    210  O          7.8320    7.6140   19.2630 O.2   362  ALA362     -0.2864
    211  CB         8.7830    4.4750   18.4360 C.3   362  ALA362      0.0319
    212  N          9.3670   10.0660   20.8890 N.3   365  ASN365     -0.1240
    213  CA         9.4340   10.9980   19.7730 C.3   365  ASN365      0.1653
    214  C          8.0450   11.5110   19.3540 C.2   365  ASN365      0.2266
    215  O          7.8780   12.6930   19.0840 O.2   365  ASN365     -0.2867
    216  CB        10.0720   10.3120   18.5740 C.3   365  ASN365      0.1155
    217  CG        11.5990   10.1880   18.6890 C.2   365  ASN365      0.2627
    218  OD1       12.2010   10.4110   19.7560 O.2   365  ASN365     -0.2716
    219  ND2       12.2320    9.8690   17.5540 N.am  365  ASN365     -0.0877
@<TRIPOS>BOND
     1    23    22    2
     2    22    21    1
     3    27    28    1
     4    15    14    2
     5   187   185   am
     6    21    24    1
     7    21    20    1
     8    28    31    1
     9    28    29    1
    10   124   123    2
    11    34    35    1
    12    34    33    1
    13    31    32    1
    14    14    20   am
    15    14    13    1
    16    24    25    1
    17   185   186    2
    18   185   184    1
    19    20    26    1
    20    32    33    1
    21    30    29    2
    22    29    36   am
    23   123   122    1
    24     2     1    1
    25     2     3    1
    26     2     5    1
    27    12    13    1
    28    12     3   am
    29    25    26    1
    30    13    16    1
    31    16    17    1
    32    50    49    2
    33     3     4    2
    34   184   183    1
    35     5     6    1
    36    49    48    1
    37   152   151    2
    38    36    37    1
    39   156   154    1
    40   122   125    1
    41   122   121    1
    42   125   126    1
    43    51    48    1
    44    51    52    1
    45   150   151    1
    46   150   149    1
    47   150   153    1
    48    17    18    1
    49    17    19    1
    50   180   183    1
    51   180   179    1
    52   180   181    1
    53   131   133   ar
    54   131   128   ar
    55    48    47    1
    56    37    38    1
    57    37    40    1
    58     6     7    1
    59    53    52    1
    60    53    54    1
    61   153   154    1
    62   154   155    1
    63   133   134   ar
    64   126   128   ar
    65   126   127   ar
    66     7     8    1
    67    38    39    2
    68    38    41   am
    69   128   130   ar
    70   182   181    2
    71    43    44    2
    72    43    42    1
    73    41    42    1
    74    63    62    2
    75    46    45    1
    76    56    57    1
    77    54    55    1
    78   127   129   ar
    79   134   132   ar
    80    42    45    1
    81    60    57    1
    82    60    61    1
    83   103   101   ar
    84     8     9    2
    85   130   132   ar
    86   130   129   ar
    87    62    61    1
    88    62    64   am
    89    57    58    1
    90    59    58    2
    91    87    85   am
    92    10     9    1
    93     9    11    1
    94   101   100    1
    95   101   102   ar
    96    86    85    2
    97   100    97    1
    98   194   193    1
    99    85    84    1
   100   193   195    1
   101   193   192    1
   102   138   137    2
   103   188   189    1
   104   147   145   ar
   105   147   148   ar
   106   112   110   ar
   107   145   142   ar
   108    97    96    1
   109    97    98    1
   110   192   189    1
   111    84    83    1
   112    78    76   ar
   113    99    98    2
   114   137   136    1
   115   189   190    1
   116    77    76   ar
   117   148   146   ar
   118    98   104   am
   119    76    75    1
   120   110   109    1
   121   110   111   ar
   122   139   136    1
   123   139   140    1
   124   109   108    1
   125   219   217   am
   126   142   140   ar
   127   142   144   ar
   128   178   177    1
   129   136   135    1
   130    83    80    1
   131   191   190    2
   132   177   174    1
   133   140   141   ar
   134   104   105    1
   135   146   144   ar
   136   211   208    1
   137   144   143   ar
   138   216   217    1
   139   216   213    1
   140    94    93   ar
   141   217   218    2
   142    95    93   ar
   143    93    92    1
   144    75    74    1
   145   120   118   am
   146   108   105    1
   147   105   106    1
   148   215   214    2
   149    80    81    1
   150    80    79    1
   151   208   209    1
   152   208   207    1
   153   200   201    1
   154   200   197    1
   155    92    89    1
   156   210   209    2
   157   141   143   ar
   158    82    81    2
   159   214   213    1
   160    74    71    1
   161   174   175    1
   162   174   173    1
   163    81    88   am
   164   175   176    2
   165   199   198    2
   166   213   212    1
   167   173   171   am
   168    88    89    1
   169   118   119    2
   170   118   117    1
   171   207   204   am
   172   198   197    1
   173   197   196    1
   174    89    90    1
   175   106   107    2
   176   205   204    2
   177   171   172    2
   178   171   170    1
   179    73    72    2
   180   169   170    1
   181   169   167   am
   182   204   203    1
   183    71    72    1
   184    71    70    1
   185   117   114    1
   186   163   162   ar
   187   166   167    1
   188   166   165    1
   189   206   203    1
   190    90    91    2
   191   164   162   ar
   192   167   168    2
   193    70    67   am
   194   162   161    1
   195   160   159    2
   196   203   202    1
   197   165   159   am
   198   113   114    1
   199   159   158    1
   200   114   115    1
   201    67    68    2
   202    67    66    1
   203   161   158    1
   204    65    66    1
   205   115   116    2
   206    69    66    1
   207   158   157    1
