@<TRIPOS>MOLECULE
tmp/2z8gB02.pdb
 72 67 0 0 0
SMALL
GASTEIGER

@<TRIPOS>ATOM
      1  N         68.8740  -25.7390   12.8850 N.3    38  GLY38      -0.1210
      2  CA        69.2140  -27.1400   12.7270 C.3    38  GLY38       0.1956
      3  C         69.0750  -27.8200   14.0730 C.2    38  GLY38       0.2611
      4  O         69.2690  -29.0290   14.2020 O.2    38  GLY38      -0.2717
      5  N         68.7200  -27.0250   15.0790 N.am   39  LEU39      -0.1979
      6  CA        68.5630  -27.5140   16.4410 C.3    39  LEU39       0.1596
      7  C         67.1140  -27.7580   16.8540 C.2    39  LEU39       0.2287
      8  O         66.8020  -28.7860   17.4560 O.2    39  LEU39      -0.2864
      9  CB        69.2100  -26.5240   17.4140 C.3    39  LEU39       0.0297
     10  CG        69.0510  -26.7690   18.9140 C.3    39  LEU39       0.0022
     11  CD1       69.5340  -28.1680   19.2770 C.3    39  LEU39       0.0001
     12  CD2       69.8460  -25.7140   19.6700 C.3    39  LEU39       0.0001
     13  N         64.1310  -31.5580   19.4140 N.3    99  ARG99      -0.1231
     14  CA        65.5360  -31.2560   19.1740 C.3    99  ARG99       0.1694
     15  C         66.1470  -32.4680   18.4670 C.2    99  ARG99       0.2592
     16  O         65.4320  -33.1860   17.7710 O.2    99  ARG99      -0.2718
     17  CB        66.2450  -30.9490   20.4990 C.3    99  ARG99       0.0321
     18  CG        65.6570  -29.7280   21.2120 C.3    99  ARG99       0.0489
     19  CD        66.5270  -29.2330   22.3610 C.3    99  ARG99       0.2205
     20  NE        66.5680  -30.1640   23.4860 N.pl3  99  ARG99      -0.0865
     21  CZ        67.2770  -29.9660   24.5930 C.cat  99  ARG99       0.5346
     22  NH1       68.0090  -28.8690   24.7290 N.pl3  99  ARG99       0.1354
     23  NH2       67.2550  -30.8660   25.5670 N.pl3  99  ARG99       0.1354
     24  N         67.4440  -32.7120   18.6320 N.am  100  ASN100     -0.1974
     25  CA        68.0650  -33.8490   17.9500 C.3   100  ASN100      0.1688
     26  C         68.1310  -35.1480   18.7550 C.2   100  ASN100      0.2292
     27  O         67.8800  -35.1680   19.9590 O.2   100  ASN100     -0.2864
     28  CB        69.4690  -33.4780   17.4590 C.3   100  ASN100      0.1181
     29  CG        70.3930  -33.0660   18.5820 C.2   100  ASN100      0.2629
     30  OD1       70.5640  -33.7960   19.5580 O.2   100  ASN100     -0.2716
     31  ND2       71.0020  -31.8940   18.4370 N.am  100  ASN100     -0.0877
     32  N         70.4100  -36.7120   20.0290 N.3   102  SER102     -0.1202
     33  CA        71.3700  -36.7630   21.1260 C.3   102  SER102      0.2020
     34  C         70.9290  -35.8290   22.2490 C.2   102  SER102      0.2619
     35  O         71.6680  -35.6010   23.2080 O.2   102  SER102     -0.2717
     36  CB        72.7640  -36.3600   20.6340 C.3   102  SER102      0.2103
     37  OG        72.7750  -35.0280   20.1500 O.3   102  SER102     -0.2182
     38  N         69.7160  -35.2990   22.1230 N.am  103  SER103     -0.1937
     39  CA        69.1660  -34.3820   23.1160 C.3   103  SER103      0.2055
     40  C         68.4140  -35.1140   24.2230 C.2   103  SER103      0.2642
     41  O         67.5470  -35.9460   23.9580 O.2   103  SER103     -0.2714
     42  CB        68.2290  -33.3790   22.4380 C.3   103  SER103      0.2130
     43  OG        68.9180  -32.6210   21.4600 O.3   103  SER103     -0.2179
     44  N         68.7530  -34.7920   25.4670 N.am  104  ALA104     -0.1977
     45  CA        68.1150  -35.4110   26.6200 C.3   104  ALA104      0.1597
     46  C         66.8340  -34.6650   26.9780 C.2   104  ALA104      0.2287
     47  O         66.5640  -33.5840   26.4520 O.2   104  ALA104     -0.2864
     48  CB        69.0710  -35.4060   27.8060 C.3   104  ALA104      0.0319
     49  N         69.2900  -27.1870   29.8560 N.3   145  ASP145     -0.1225
     50  CA        70.6170  -27.6430   29.4570 C.3   145  ASP145      0.1805
     51  C         71.2440  -26.8300   28.3270 C.2   145  ASP145      0.2597
     52  O         72.3530  -27.1290   27.8800 O.2   145  ASP145     -0.2718
     53  CB        70.5900  -29.1380   29.0960 C.3   145  ASP145      0.1424
     54  CG        69.7280  -29.4420   27.8880 C.2   145  ASP145      0.3668
     55  OD1       69.5370  -30.6440   27.5950 O.co2 145  ASP145     -0.2456
     56  OD2       69.2460  -28.4950   27.2310 O.co2 145  ASP145     -0.2456
     57  N         70.5430  -25.7910   27.8790 N.am  146  ASP146     -0.1974
     58  CA        71.0550  -24.9330   26.8180 C.3   146  ASP146      0.1709
     59  C         71.4790  -23.5780   27.3840 C.2   146  ASP146      0.2293
     60  O         72.0690  -22.7540   26.6810 O.2   146  ASP146     -0.2864
     61  CB        69.9950  -24.7280   25.7320 C.3   146  ASP146      0.1436
     62  CG        70.4850  -23.8410   24.6060 C.2   146  ASP146      0.3671
     63  OD1       71.4870  -24.2030   23.9520 O.co2 146  ASP146     -0.2456
     64  OD2       69.8720  -22.7770   24.3760 O.co2 146  ASP146     -0.2456
     65  N         71.0480  -20.8580   22.5430 N.3   160  ASN160     -0.1240
     66  CA        70.2780  -20.9720   21.3110 C.3   160  ASN160      0.1653
     67  C         68.8030  -20.7240   21.6110 C.2   160  ASN160      0.2266
     68  O         68.0460  -21.6490   21.9030 O.2   160  ASN160     -0.2867
     69  CB        70.4770  -22.3690   20.7230 C.3   160  ASN160      0.1155
     70  CG        71.9400  -22.6830   20.4620 C.2   160  ASN160      0.2627
     71  OD1       72.5460  -22.1490   19.5330 O.2   160  ASN160     -0.2716
     72  ND2       72.5190  -23.5410   21.2950 N.am  160  ASN160     -0.0877
@<TRIPOS>BOND
     1     2     1    1
     2     2     3    1
     3     3     4    2
     4     3     5   am
     5     5     6    1
     6     6     7    1
     7     6     9    1
     8     7     8    2
     9     9    10    1
    10    28    25    1
    11    28    29    1
    12    16    15    2
    13    25    24    1
    14    25    26    1
    15    31    29   am
    16    15    24   am
    17    15    14    1
    18    29    30    2
    19    26    27    2
    20    10    11    1
    21    10    12    1
    22    14    13    1
    23    14    17    1
    24    71    70    2
    25    32    33    1
    26    37    36    1
    27    70    69    1
    28    70    72   am
    29    17    18    1
    30    36    33    1
    31    69    66    1
    32    33    34    1
    33    18    19    1
    34    66    67    1
    35    66    65    1
    36    43    42    1
    37    67    68    2
    38    38    34   am
    39    38    39    1
    40    34    35    2
    41    19    20    1
    42    42    39    1
    43    39    40    1
    44    20    21    2
    45    63    62   ar
    46    41    40    2
    47    40    44   am
    48    64    62   ar
    49    21    22    1
    50    21    23    1
    51    62    61    1
    52    44    45    1
    53    61    58    1
    54    47    46    2
    55    45    46    1
    56    45    48    1
    57    60    59    2
    58    58    59    1
    59    58    57    1
    60    56    54   ar
    61    55    54   ar
    62    57    51   am
    63    52    51    2
    64    54    53    1
    65    51    50    1
    66    53    50    1
    67    50    49    1
