@<TRIPOS>MOLECULE
tmp/2z8gB08.pdb
 193 187 0 0 0
SMALL
GASTEIGER

@<TRIPOS>ATOM
      1  N         82.6180   -7.6270   14.9740 N.3    73  GLN73      -0.1231
      2  CA        83.2190   -6.5430   15.7510 C.3    73  GLN73       0.1698
      3  C         82.1840   -5.4790   16.1200 C.2    73  GLN73       0.2592
      4  O         82.4430   -4.6050   16.9520 O.2    73  GLN73      -0.2718
      5  CB        84.3380   -5.8830   14.9430 C.3    73  GLN73       0.0381
      6  CG        83.8410   -5.2390   13.6550 C.3    73  GLN73       0.0905
      7  CD        84.9350   -4.5290   12.8860 C.2    73  GLN73       0.2608
      8  OE1       85.5410   -3.5790   13.3800 O.2    73  GLN73      -0.2717
      9  NE2       85.1900   -4.9850   11.6670 N.am   73  GLN73      -0.0878
     10  N         81.0160   -5.5540   15.4910 N.am   74  TYR74      -0.1962
     11  CA        79.9500   -4.5910   15.7400 C.3    74  TYR74       0.1771
     12  C         78.8290   -5.1720   16.5950 C.2    74  TYR74       0.2620
     13  O         77.7540   -4.5800   16.7110 O.2    74  TYR74      -0.2715
     14  CB        79.4030   -4.0860   14.4030 C.3    74  TYR74       0.0574
     15  CG        80.4760   -3.4710   13.5330 C.ar   74  TYR74      -0.0198
     16  CD1       80.6660   -3.8970   12.2170 C.ar   74  TYR74      -0.0009
     17  CD2       81.3220   -2.4810   14.0350 C.ar   74  TYR74      -0.0009
     18  CE1       81.6770   -3.3520   11.4220 C.ar   74  TYR74       0.0417
     19  CE2       82.3320   -1.9330   13.2500 C.ar   74  TYR74       0.0417
     20  CZ        82.5040   -2.3720   11.9480 C.ar   74  TYR74       0.1957
     21  OH        83.5010   -1.8270   11.1710 O.3    74  TYR74      -0.2866
     22  N         79.0870   -6.3320   17.1930 N.am   75  THR75      -0.1937
     23  CA        78.1200   -6.9930   18.0660 C.3    75  THR75       0.2028
     24  C         78.6890   -6.9720   19.4820 C.2    75  THR75       0.2642
     25  O         79.7350   -6.3670   19.7160 O.2    75  THR75      -0.2714
     26  CB        77.8780   -8.4630   17.6510 C.3    75  THR75       0.1808
     27  OG1       79.0510   -9.2440   17.9200 O.3    75  THR75      -0.2208
     28  CG2       77.5540   -8.5510   16.1660 C.3    75  THR75       0.0379
     29  N         78.0120   -7.6250   20.4250 N.am   76  GLN76      -0.1976
     30  CA        78.4930   -7.6540   21.8040 C.3    76  GLN76       0.1601
     31  C         79.4950   -8.7820   22.0630 C.2    76  GLN76       0.2287
     32  O         80.0160   -8.9140   23.1730 O.2    76  GLN76      -0.2864
     33  CB        77.3190   -7.7630   22.7830 C.3    76  GLN76       0.0394
     34  CG        76.3890   -6.5460   22.8010 C.3    76  GLN76       0.0908
     35  CD        77.1190   -5.2310   23.0440 C.2    76  GLN76       0.2608
     36  OE1       77.9800   -5.1310   23.9270 O.2    76  GLN76      -0.2717
     37  NE2       76.7690   -4.2120   22.2680 N.am   76  GLN76      -0.0878
     38  N         76.5910   -3.6740    9.0400 N.3   262  TRP262     -0.1241
     39  CA        76.1660   -2.7840   10.1110 C.3   262  TRP262      0.1605
     40  C         76.3080   -1.3300    9.6830 C.2   262  TRP262      0.2264
     41  O         77.3030   -0.9520    9.0610 O.2   262  TRP262     -0.2867
     42  CB        77.0060   -3.0160   11.3690 C.3   262  TRP262      0.0550
     43  CG        76.5880   -2.1570   12.5330 C.ar  262  TRP262      0.0003
     44  CD1       75.3900   -2.1930   13.1860 C.ar  262  TRP262      0.0946
     45  CD2       77.3730   -1.1510   13.1920 C.ar  262  TRP262      0.0152
     46  NE1       75.3800   -1.2760   14.2130 N.ar  262  TRP262     -0.2442
     47  CE2       76.5840   -0.6240   14.2390 C.ar  262  TRP262      0.0810
     48  CE3       78.6670   -0.6450   12.9990 C.ar  262  TRP262      0.0012
     49  CZ2       77.0460    0.3840   15.0930 C.ar  262  TRP262      0.0191
     50  CZ3       79.1260    0.3600   13.8490 C.ar  262  TRP262      0.0001
     51  CH2       78.3150    0.8610   14.8830 C.ar  262  TRP262      0.0015
     52  N         74.8210   -3.3660   17.4420 N.3   335  GLY335     -0.1210
     53  CA        74.5570   -2.2710   18.3550 C.3   335  GLY335      0.1956
     54  C         73.6790   -1.2520   17.6480 C.2   335  GLY335      0.2611
     55  O         73.5110   -1.3190   16.4300 O.2   335  GLY335     -0.2717
     56  N         73.1200   -0.3180   18.4140 N.am  336  GLN336     -0.1979
     57  CA        72.2610    0.7440   17.8940 C.3   336  GLN336      0.1601
     58  C         71.0790    0.2360   17.0710 C.2   336  GLN336      0.2287
     59  O         70.6880    0.8450   16.0710 O.2   336  GLN336     -0.2864
     60  CB        73.1060    1.7450   17.0940 C.3   336  GLN336      0.0394
     61  CG        74.2530    2.3100   17.9430 C.3   336  GLN336      0.0908
     62  CD        75.1150    3.3390   17.2330 C.2   336  GLN336      0.2608
     63  OE1       76.3410    3.3650   17.4160 O.2   336  GLN336     -0.2717
     64  NE2       74.4890    4.2050   16.4410 N.am  336  GLN336     -0.0878
     65  N         67.8550    0.1830   17.7990 N.3   338  ASP338     -0.1239
     66  CA        66.7140    0.7250   18.5480 C.3   338  ASP338      0.1674
     67  C         65.3440    0.2010   18.1630 C.2   338  ASP338      0.2266
     68  O         65.1150   -0.2160   17.0290 O.2   338  ASP338     -0.2867
     69  CB        66.6090    2.2490   18.3940 C.3   338  ASP338      0.1410
     70  CG        67.8920    2.9750   18.6990 C.2   338  ASP338      0.3668
     71  OD1       67.8200    4.2140   18.8310 O.co2 338  ASP338     -0.2456
     72  OD2       68.9580    2.3340   18.7890 O.co2 338  ASP338     -0.2456
     73  N         69.5950   -4.1660   21.0970 N.3   356  ASP356     -0.1225
     74  CA        70.8770   -3.8640   21.7250 C.3   356  ASP356      0.1805
     75  C         71.0690   -2.3580   21.9360 C.2   356  ASP356      0.2598
     76  O         72.1950   -1.8760   21.9820 O.2   356  ASP356     -0.2718
     77  CB        72.0430   -4.3990   20.8890 C.3   356  ASP356      0.1424
     78  CG        73.3650   -4.3800   21.6530 C.2   356  ASP356      0.3668
     79  OD1       74.4240   -4.1940   21.0180 O.co2 356  ASP356     -0.2456
     80  OD2       73.3400   -4.5610   22.8890 O.co2 356  ASP356     -0.2456
     81  N         69.9720   -1.6100   22.0190 N.am  357  ASP357     -0.1960
     82  CA        70.0640   -0.1740   22.2850 C.3   357  ASP357      0.1840
     83  C         68.7110    0.3250   22.7950 C.2   357  ASP357      0.2622
     84  O         67.8860   -0.4800   23.2190 O.2   357  ASP357     -0.2715
     85  CB        70.5150    0.5990   21.0350 C.3   357  ASP357      0.1450
     86  CG        71.3080    1.8620   21.3820 C.2   357  ASP357      0.3671
     87  OD1       70.7120    2.8230   21.9150 O.co2 357  ASP357     -0.2456
     88  OD2       72.5350    1.8920   21.1310 O.co2 357  ASP357     -0.2456
     89  N         68.4850    1.6360   22.7620 N.am  358  ASP358     -0.1971
     90  CA        67.2290    2.2080   23.2590 C.3   358  ASP358      0.1709
     91  C         66.0100    1.3860   22.8430 C.2   358  ASP358      0.2293
     92  O         65.7360    1.2210   21.6570 O.2   358  ASP358     -0.2864
     93  CB        67.1030    3.6620   22.7850 C.3   358  ASP358      0.1436
     94  CG        68.0310    4.5990   23.5440 C.2   358  ASP358      0.3671
     95  OD1       68.5510    5.5570   22.9370 O.co2 358  ASP358     -0.2456
     96  OD2       68.2300    4.3730   24.7560 O.co2 358  ASP358     -0.2456
     97  N         73.2380   -2.9050   25.8460 N.3   379  VAL379     -0.1231
     98  CA        73.3500   -1.4490   25.8500 C.3   379  VAL379      0.1692
     99  C         72.0300   -0.6790   25.9280 C.2   379  VAL379      0.2591
    100  O         71.0170   -1.1130   25.3760 O.2   379  VAL379     -0.2718
    101  CB        74.1130   -0.9750   24.5820 C.3   379  VAL379      0.0266
    102  CG1       74.1650    0.5480   24.5240 C.3   379  VAL379      0.0020
    103  CG2       75.5270   -1.5480   24.5770 C.3   379  VAL379      0.0020
    104  N         72.0670    0.4600   26.6240 N.am  380  ALA380     -0.1980
    105  CA        70.9180    1.3620   26.7730 C.3   380  ALA380      0.1597
    106  C         69.8070    0.8560   27.6860 C.2   380  ALA380      0.2287
    107  O         69.6470   -0.3460   27.8770 O.2   380  ALA380     -0.2864
    108  CB        70.3460    1.6960   25.4000 C.3   380  ALA380      0.0319
    109  N         63.7230    4.8140   27.4060 N.3   384  GLU384     -0.1245
    110  CA        64.6360    5.9400   27.2450 C.3   384  GLU384      0.1567
    111  C         63.9500    7.2860   27.0160 C.2   384  GLU384      0.2260
    112  O         63.0730    7.4030   26.1620 O.2   384  GLU384     -0.2867
    113  CB        65.5730    5.6700   26.0610 C.3   384  GLU384      0.0388
    114  CG        66.4690    6.8460   25.6720 C.3   384  GLU384      0.1160
    115  CD        67.6680    6.9940   26.5920 C.2   384  GLU384      0.3649
    116  OE1       68.6120    6.1820   26.4770 O.co2 384  GLU384     -0.2457
    117  OE2       67.6620    7.9150   27.4340 O.co2 384  GLU384     -0.2457
    118  N         68.9130   12.0750   26.1600 N.3   387  TRP387     -0.1241
    119  CA        69.4790   12.5590   24.8920 C.3   387  TRP387      0.1605
    120  C         69.1690   14.0150   24.5330 C.2   387  TRP387      0.2264
    121  O         70.0640   14.7690   24.1460 O.2   387  TRP387     -0.2867
    122  CB        69.0280   11.6770   23.7180 C.3   387  TRP387      0.0550
    123  CG        69.5790   10.2790   23.7110 C.ar  387  TRP387      0.0003
    124  CD1       68.8660    9.1230   23.5480 C.ar  387  TRP387      0.0946
    125  CD2       70.9550    9.8880   23.8220 C.ar  387  TRP387      0.0152
    126  NE1       69.7110    8.0390   23.5510 N.ar  387  TRP387     -0.2442
    127  CE2       70.9980    8.4780   23.7160 C.ar  387  TRP387      0.0810
    128  CE3       72.1550   10.5900   24.0000 C.ar  387  TRP387      0.0012
    129  CZ2       72.1960    7.7540   23.7830 C.ar  387  TRP387      0.0191
    130  CZ3       73.3500    9.8690   24.0670 C.ar  387  TRP387      0.0001
    131  CH2       73.3580    8.4630   23.9580 C.ar  387  TRP387      0.0015
    132  N         78.4180   -3.0250   32.3870 N.3   409  ASN409     -0.1240
    133  CA        78.9330   -1.9370   33.2120 C.3   409  ASN409      0.1653
    134  C         78.1180   -0.6530   33.0990 C.2   409  ASN409      0.2266
    135  O         77.1950   -0.5580   32.2940 O.2   409  ASN409     -0.2867
    136  CB        80.3810   -1.6520   32.8220 C.3   409  ASN409      0.1155
    137  CG        80.5460   -1.4420   31.3310 C.2   409  ASN409      0.2627
    138  OD1       81.2060   -2.2280   30.6490 O.2   409  ASN409     -0.2716
    139  ND2       79.9360   -0.3830   30.8130 N.am  409  ASN409     -0.0877
    140  N         78.9220    2.0660   31.8160 N.3   411  GLY411     -0.1210
    141  CA        79.0710    2.6670   30.5040 C.3   411  GLY411      0.1956
    142  C         77.9840    2.2450   29.5290 C.2   411  GLY411      0.2612
    143  O         77.7750    2.8980   28.5080 O.2   411  GLY411     -0.2717
    144  N         77.2940    1.1540   29.8440 N.am  412  ASN412     -0.1960
    145  CA        76.2190    0.6440   28.9930 C.3   412  ASN412      0.1819
    146  C         74.9500    1.4890   29.1320 C.2   412  ASN412      0.2621
    147  O         74.0130    1.3380   28.3490 O.2   412  ASN412     -0.2715
    148  CB        75.8620   -0.7950   29.3830 C.3   412  ASN412      0.1195
    149  CG        76.9980   -1.7800   29.1560 C.2   412  ASN412      0.2630
    150  OD1       77.1000   -2.7820   29.8640 O.2   412  ASN412     -0.2716
    151  ND2       77.8380   -1.5170   28.1600 N.am  412  ASN412     -0.0877
    152  N         74.9260    2.3770   30.1230 N.am  413  ASN413     -0.1972
    153  CA        73.7430    3.1950   30.3990 C.3   413  ASN413      0.1688
    154  C         72.5710    2.2540   30.6790 C.2   413  ASN413      0.2292
    155  O         71.5200    2.3440   30.0400 O.2   413  ASN413     -0.2864
    156  CB        73.4020    4.1040   29.2150 C.3   413  ASN413      0.1181
    157  CG        74.3930    5.2310   29.0420 C.2   413  ASN413      0.2629
    158  OD1       74.7210    5.9390   30.0000 O.2   413  ASN413     -0.2716
    159  ND2       74.8650    5.4180   27.8170 N.am  413  ASN413     -0.0877
    160  N         69.4550    9.2320   29.5710 N.3   420  VAL420     -0.1245
    161  CA        70.8770    9.5310   29.4870 C.3   420  VAL420      0.1561
    162  C         71.1470   11.0160   29.2780 C.2   420  VAL420      0.2260
    163  O         70.2200   11.8140   29.1370 O.2   420  VAL420     -0.2867
    164  CB        71.5460    8.7240   28.3550 C.3   420  VAL420      0.0252
    165  CG1       71.3450    7.2360   28.5990 C.3   420  VAL420      0.0019
    166  CG2       70.9670    9.1250   27.0140 C.3   420  VAL420      0.0019
    167  N         72.8900   14.4470   24.1650 N.3   423  TYR423     -0.1241
    168  CA        73.7010   13.9900   23.0410 C.3   423  TYR423      0.1605
    169  C         74.6250   15.0380   22.4280 C.2   423  TYR423      0.2264
    170  O         75.7150   14.7100   21.9590 O.2   423  TYR423     -0.2867
    171  CB        72.8080   13.4080   21.9420 C.3   423  TYR423      0.0534
    172  CG        73.5980   12.8370   20.7860 C.ar  423  TYR423     -0.0201
    173  CD1       73.9860   13.6410   19.7140 C.ar  423  TYR423     -0.0009
    174  CD2       74.0090   11.5030   20.7930 C.ar  423  TYR423     -0.0009
    175  CE1       74.7690   13.1320   18.6790 C.ar  423  TYR423      0.0417
    176  CE2       74.7910   10.9830   19.7650 C.ar  423  TYR423      0.0417
    177  CZ        75.1670   11.8030   18.7120 C.ar  423  TYR423      0.1957
    178  OH        75.9420   11.2940   17.6970 O.3   423  TYR423     -0.2866
    179  N         77.7250   12.4790   23.5240 N.3   427  PRO427     -0.2102
    180  CA        77.2140   11.4900   22.5730 C.3   427  PRO427      0.1504
    181  C         77.1510   10.0460   23.0640 C.2   427  PRO427      0.2575
    182  O         76.4010    9.2460   22.5090 O.2   427  PRO427     -0.2718
    183  CB        78.1380   11.6620   21.3660 C.3   427  PRO427      0.0282
    184  CG        79.4190   12.1330   21.9830 C.3   427  PRO427      0.0208
    185  CD        78.9270   13.1420   22.9890 C.3   427  PRO427      0.0893
    186  N         77.9250    9.7050   24.0920 N.am  428  ASP428     -0.1974
    187  CA        77.8960    8.3420   24.6140 C.3   428  ASP428      0.1708
    188  C         76.8820    8.2190   25.7480 C.2   428  ASP428      0.2293
    189  O         76.7260    7.1560   26.3490 O.2   428  ASP428     -0.2864
    190  CB        79.2950    7.8900   25.0720 C.3   428  ASP428      0.1436
    191  CG        79.7650    8.5710   26.3520 C.2   428  ASP428      0.3671
    192  OD1       80.9520    8.3870   26.7010 O.co2 428  ASP428     -0.2456
    193  OD2       78.9740    9.2720   27.0160 O.co2 428  ASP428     -0.2456
@<TRIPOS>BOND
     1    38    39    1
     2    41    40    2
     3    40    39    1
     4    39    42    1
     5    21    20    1
     6    42    43    1
     7    18    20   ar
     8    18    16   ar
     9     9     7   am
    10    20    19   ar
    11    16    15   ar
    12    43    44   ar
    13    43    45   ar
    14     7     8    2
    15     7     6    1
    16    48    45   ar
    17    48    50   ar
    18    44    46   ar
    19    45    47   ar
    20    19    17   ar
    21    15    17   ar
    22    15    14    1
    23     6     5    1
    24    50    51   ar
    25    46    47   ar
    26    47    49   ar
    27    14    11    1
    28    51    49   ar
    29     5     2    1
    30     1     2    1
    31    10    11    1
    32    10     3   am
    33    11    12    1
    34     2     3    1
    35    59    58    2
    36     3     4    2
    37    28    26    1
    38    55    54    2
    39    64    62   am
    40    12    13    2
    41    12    22   am
    42    68    67    2
    43    58    57    1
    44    60    57    1
    45    60    61    1
    46    22    23    1
    47    62    63    2
    48    62    61    1
    49    52    53    1
    50    54    53    1
    51    54    56   am
    52    26    27    1
    53    26    23    1
    54   178   177    1
    55    65    66    1
    56    57    56    1
    57    23    24    1
    58    67    66    1
    59    69    66    1
    60    69    70    1
    61   175   177   ar
    62   175   173   ar
    63    70    72   ar
    64    70    71   ar
    65   177   176   ar
    66    24    25    2
    67    24    29   am
    68   173   172   ar
    69   176   174   ar
    70    29    30    1
    71   172   174   ar
    72   172   171    1
    73    77    78    1
    74    77    74    1
    75    79    78   ar
    76    85    86    1
    77    85    82    1
    78    73    74    1
    79    88    86   ar
    80   183   184    1
    81   183   180    1
    82    86    87   ar
    83    78    80   ar
    84    92    91    2
    85    74    75    1
    86    30    31    1
    87    30    33    1
    88    75    76    2
    89    75    81   am
    90   171   168    1
    91   170   169    2
    92   184   185    1
    93    81    82    1
    94    31    32    2
    95    37    35   am
    96    82    83    1
    97   169   168    1
    98   182   181    2
    99   180   181    1
   100   180   179    1
   101    89    83   am
   102    89    90    1
   103    33    34    1
   104    93    90    1
   105    93    94    1
   106    83    84    2
   107    34    35    1
   108    91    90    1
   109    95    94   ar
   110   185   179    1
   111   168   167    1
   112    35    36    2
   113   181   186   am
   114    94    96   ar
   115   124   126   ar
   116   124   123   ar
   117   126   127   ar
   118   123   122    1
   119   123   125   ar
   120   127   129   ar
   121   127   125   ar
   122   122   119    1
   123   129   131   ar
   124   125   128   ar
   125   131   130   ar
   126   128   130   ar
   127   186   187    1
   128   121   120    2
   129   102   101    1
   130   120   119    1
   131   103   101    1
   132   101    98    1
   133   187   190    1
   134   187   188    1
   135   119   118    1
   136   190   191    1
   137   100    99    2
   138   108   105    1
   139   114   113    1
   140   114   115    1
   141   188   189    2
   142    97    98    1
   143    98    99    1
   144    99   104   am
   145   113   110    1
   146   112   111    2
   147   191   192   ar
   148   191   193   ar
   149   116   115   ar
   150   115   117   ar
   151   104   105    1
   152   105   106    1
   153   166   164    1
   154   111   110    1
   155   110   109    1
   156   106   107    2
   157   159   157   am
   158   151   149   am
   159   147   146    2
   160   164   165    1
   161   164   161    1
   162   143   142    2
   163   145   146    1
   164   145   148    1
   165   145   144    1
   166   157   156    1
   167   157   158    2
   168   146   152   am
   169   163   162    2
   170   149   148    1
   171   149   150    2
   172   156   153    1
   173   162   161    1
   174   161   160    1
   175   142   144   am
   176   142   141    1
   177   155   154    2
   178   152   153    1
   179   153   154    1
   180   141   140    1
   181   138   137    2
   182   139   137   am
   183   137   136    1
   184   135   134    2
   185   132   133    1
   186   136   133    1
   187   134   133    1
