@<TRIPOS>MOLECULE
tmp/2z8iD00.pdb
 108 101 0 0 0
SMALL
GASTEIGER

@<TRIPOS>ATOM
      1  N         33.0560   -5.3020  -56.7900 N.3     1  THR1       -0.1218
      2  CA        33.5050   -6.6100  -57.3950 C.3     1  THR1        0.1862
      3  C         32.5750   -7.7640  -56.9810 C.2     1  THR1        0.2287
      4  O         31.9390   -7.7080  -55.9400 O.2     1  THR1       -0.2866
      5  CB        34.9480   -6.9730  -56.9170 C.3     1  THR1        0.1770
      6  OG1       35.8450   -5.9050  -57.2440 O.3     1  THR1       -0.2211
      7  CG2       35.4340   -8.2510  -57.6050 C.3     1  THR1        0.0375
      8  N         34.0900   -6.8110  -62.2450 N.3    19  THR19      -0.1218
      9  CA        33.8240   -5.6790  -61.3680 C.3    19  THR19       0.1862
     10  C         33.7790   -4.3110  -62.0450 C.2    19  THR19       0.2287
     11  O         34.1260   -4.1710  -63.2210 O.2    19  THR19      -0.2866
     12  CB        34.9550   -5.6590  -60.3020 C.3    19  THR19       0.1770
     13  OG1       34.7010   -4.6530  -59.3220 O.3    19  THR19      -0.2211
     14  CG2       36.3120   -5.3590  -60.9680 C.3    19  THR19       0.0375
     15  N         34.9460   -1.9750  -59.9710 N.3    21  ASN21      -0.1225
     16  CA        35.9190   -1.5920  -58.9500 C.3    21  ASN21       0.1785
     17  C         35.1170   -1.2600  -57.7010 C.2    21  ASN21       0.2598
     18  O         34.6140   -2.1700  -57.0570 O.2    21  ASN21      -0.2718
     19  CB        36.8240   -0.4190  -59.3310 C.3    21  ASN21       0.1169
     20  CG        37.9160   -0.1980  -58.2910 C.2    21  ASN21       0.2627
     21  OD1       38.1910   -1.0930  -57.4850 O.2    21  ASN21      -0.2716
     22  ND2       38.5370    0.9730  -58.2990 N.am   21  ASN21      -0.0877
     23  N         34.9610    0.0130  -57.3480 N.am   22  THR22      -0.1939
     24  CA        34.1880    0.2880  -56.1460 C.3    22  THR22       0.2028
     25  C         32.7080    0.0460  -56.4260 C.2    22  THR22       0.2642
     26  O         32.3070   -0.1360  -57.5750 O.2    22  THR22      -0.2714
     27  CB        34.4010    1.7240  -55.6160 C.3    22  THR22       0.1808
     28  OG1       33.7920    2.6630  -56.5040 O.3    22  THR22      -0.2208
     29  CG2       35.8920    2.0220  -55.4800 C.3    22  THR22       0.0379
     30  N         31.9030    0.0210  -55.3670 N.am   23  THR23      -0.1950
     31  CA        30.4700   -0.2210  -55.5000 C.3    23  THR23       0.1897
     32  C         29.8340    0.8080  -56.4270 C.2    23  THR23       0.2313
     33  O         29.8800    2.0020  -56.1460 O.2    23  THR23      -0.2863
     34  CB        29.7960   -0.1650  -54.1230 C.3    23  THR23       0.1794
     35  OG1       30.5050   -1.0270  -53.2260 O.3    23  THR23      -0.2208
     36  CG2       28.3560   -0.6240  -54.2120 C.3    23  THR23       0.0378
     37  N         38.0130    1.6840  -62.6700 N.3    40  GLN40      -0.1245
     38  CA        39.1620    0.7820  -62.6130 C.3    40  GLN40       0.1566
     39  C         40.5210    1.4750  -62.7100 C.2    40  GLN40       0.2260
     40  O         41.5390    0.8880  -62.3580 O.2    40  GLN40      -0.2867
     41  CB        39.0730   -0.2610  -63.7320 C.3    40  GLN40       0.0367
     42  CG        39.3620   -1.6730  -63.2540 C.3    40  GLN40       0.0905
     43  CD        38.2380   -2.2150  -62.3890 C.2    40  GLN40       0.2608
     44  OE1       38.4580   -2.6320  -61.2490 O.2    40  GLN40      -0.2717
     45  NE2       37.0220   -2.2100  -62.9280 N.am   40  GLN40      -0.0878
     46  N         43.1110    1.4490  -59.9940 N.3    43  ASP43      -0.1239
     47  CA        43.9060    0.2590  -59.7300 C.3    43  ASP43       0.1674
     48  C         45.3410    0.4190  -60.2390 C.2    43  ASP43       0.2266
     49  O         46.1920   -0.4230  -59.9740 O.2    43  ASP43      -0.2867
     50  CB        43.2340   -0.9890  -60.3250 C.3    43  ASP43       0.1410
     51  CG        42.1520   -1.5610  -59.4080 C.2    43  ASP43       0.3668
     52  OD1       42.0390   -1.1190  -58.2310 O.co2  43  ASP43      -0.2456
     53  OD2       41.4250   -2.4720  -59.8590 O.co2  43  ASP43      -0.2456
     54  N         42.7290    0.9000  -51.9290 N.3    54  TYR54      -0.1241
     55  CA        42.8750   -0.3200  -51.1320 C.3    54  TYR54       0.1605
     56  C         44.1750   -0.3620  -50.3490 C.2    54  TYR54       0.2264
     57  O         44.4930   -1.3720  -49.7190 O.2    54  TYR54      -0.2867
     58  CB        42.7840   -1.5680  -52.0100 C.3    54  TYR54       0.0534
     59  CG        41.4900   -1.6310  -52.7620 C.ar   54  TYR54      -0.0201
     60  CD1       40.2720   -1.6880  -52.0830 C.ar   54  TYR54      -0.0009
     61  CD2       41.4720   -1.5530  -54.1480 C.ar   54  TYR54      -0.0009
     62  CE1       39.0630   -1.6570  -52.7740 C.ar   54  TYR54       0.0417
     63  CE2       40.2730   -1.5210  -54.8470 C.ar   54  TYR54       0.0417
     64  CZ        39.0760   -1.5700  -54.1580 C.ar   54  TYR54       0.1957
     65  OH        37.8950   -1.5050  -54.8550 O.3    54  TYR54      -0.2866
     66  N         45.3190   -5.9620  -61.2860 N.3    72  SER72      -0.1202
     67  CA        44.1870   -6.4300  -60.4790 C.3    72  SER72       0.2020
     68  C         44.6210   -7.4100  -59.3970 C.2    72  SER72       0.2619
     69  O         45.7340   -7.9400  -59.4410 O.2    72  SER72      -0.2717
     70  CB        43.1520   -7.1250  -61.3760 C.3    72  SER72       0.2103
     71  OG        42.0320   -7.5780  -60.6280 O.3    72  SER72      -0.2182
     72  N         43.7480   -7.6270  -58.4130 N.am   73  SER73      -0.1937
     73  CA        44.0110   -8.6010  -57.3510 C.3    73  SER73       0.2055
     74  C         42.9980   -9.7350  -57.5230 C.2    73  SER73       0.2642
     75  O         43.0530  -10.7320  -56.8070 O.2    73  SER73      -0.2714
     76  CB        43.8180   -7.9950  -55.9550 C.3    73  SER73       0.2130
     77  OG        44.6860   -6.9070  -55.7170 O.3    73  SER73      -0.2179
     78  N         42.0860   -9.5880  -58.4850 N.am   74  MET74      -0.1976
     79  CA        41.0450  -10.5990  -58.7060 C.3    74  MET74       0.1605
     80  C         41.6200  -11.9830  -58.9370 C.2    74  MET74       0.2287
     81  O         42.5060  -12.1700  -59.7760 O.2    74  MET74      -0.2864
     82  CB        40.1320  -10.1940  -59.8590 C.3    74  MET74       0.0413
     83  CG        39.2250   -9.0250  -59.4840 C.3    74  MET74       0.0598
     84  SD        37.9350   -8.7180  -60.6900 S.3    74  MET74      -0.1393
     85  CE        38.8350   -7.7670  -61.9050 C.3    74  MET74       0.0692
     86  N         35.4060  -11.1260  -54.0040 N.3    92  PRO92      -0.2102
     87  CA        35.6240   -9.6960  -54.2290 C.3    92  PRO92       0.1504
     88  C         36.4700   -9.2460  -53.0310 C.2    92  PRO92       0.2576
     89  O         36.7840  -10.0650  -52.1540 O.2    92  PRO92      -0.2718
     90  CB        34.2060   -9.1180  -54.1880 C.3    92  PRO92       0.0282
     91  CG        33.5190  -10.0150  -53.1960 C.3    92  PRO92       0.0208
     92  CD        34.0080  -11.3850  -53.6010 C.3    92  PRO92       0.0893
     93  N         36.8460   -7.9700  -52.9850 N.am   93  GLY93      -0.1943
     94  CA        37.6210   -7.4950  -51.8500 C.3    93  GLY93       0.2014
     95  C         38.8640   -6.6710  -52.1280 C.2    93  GLY93       0.2639
     96  O         39.6750   -6.4600  -51.2210 O.2    93  GLY93      -0.2714
     97  N         39.0250   -6.1960  -53.3610 N.am   94  GLY94      -0.1954
     98  CA        40.2010   -5.4080  -53.6810 C.3    94  GLY94       0.1869
     99  C         41.4750   -6.1230  -53.2640 C.2    94  GLY94       0.2309
    100  O         41.6860   -7.2860  -53.6040 O.2    94  GLY94      -0.2863
    101  N         41.4100   -9.7540  -51.8340 N.3    97  ILE97      -0.1245
    102  CA        41.0140  -10.9270  -52.6120 C.3    97  ILE97       0.1561
    103  C         42.0610  -12.0340  -52.5210 C.2    97  ILE97       0.2260
    104  O         41.7300  -13.2070  -52.3210 O.2    97  ILE97      -0.2867
    105  CB        40.7980  -10.5680  -54.0980 C.3    97  ILE97       0.0252
    106  CG1       39.5620   -9.6710  -54.2290 C.3    97  ILE97       0.0019
    107  CG2       40.6170  -11.8340  -54.9300 C.3    97  ILE97       0.0019
    108  CD1       39.3450   -9.1350  -55.6300 C.3    97  ILE97       0.0001
@<TRIPOS>BOND
     1    41    42    1
     2    41    38    1
     3    42    43    1
     4    11    10    2
     5    45    43   am
     6    39    38    1
     7    39    40    2
     8    37    38    1
     9    43    44    2
    10     8     9    1
    11    10     9    1
    12    85    84    1
    13    70    71    1
    14    70    67    1
    15     9    12    1
    16    66    67    1
    17    14    12    1
    18    84    83    1
    19    67    68    1
    20    50    47    1
    21    50    51    1
    22    12    13    1
    23    48    49    2
    24    48    47    1
    25    46    47    1
    26    15    16    1
    27    82    83    1
    28    82    79    1
    29    53    51   ar
    30    81    80    2
    31    69    68    2
    32    51    52   ar
    33    68    72   am
    34    19    16    1
    35    19    20    1
    36    16    17    1
    37    80    79    1
    38    79    78    1
    39    78    74   am
    40    72    73    1
    41    22    20   am
    42    20    21    2
    43    17    23   am
    44    17    18    2
    45     7     5    1
    46    26    25    2
    47    74    73    1
    48    74    75    2
    49     2     3    1
    50     2     5    1
    51     2     1    1
    52    73    76    1
    53    23    24    1
    54     6     5    1
    55     3     4    2
    56    28    27    1
    57    32    33    2
    58    32    31    1
    59    25    24    1
    60    25    30   am
    61    24    27    1
    62    76    77    1
    63   108   106    1
    64    27    29    1
    65    31    30    1
    66    31    34    1
    67   107   105    1
    68    65    64    1
    69    63    64   ar
    70    63    61   ar
    71   106   105    1
    72    87    90    1
    73    87    86    1
    74    87    88    1
    75    36    34    1
    76    90    91    1
    77    64    62   ar
    78    61    59   ar
    79    34    35    1
    80   105   102    1
    81    86    92    1
    82    98    97    1
    83    98    99    1
    84   100    99    2
    85    92    91    1
    86    97    95   am
    87    88    93   am
    88    88    89    2
    89    93    94    1
    90    62    60   ar
    91    59    60   ar
    92    59    58    1
    93   102   103    1
    94   102   101    1
    95   103   104    2
    96    95    94    1
    97    95    96    2
    98    58    55    1
    99    54    55    1
   100    55    56    1
   101    56    57    2
