@<TRIPOS>MOLECULE
tmp/2z8jD00.pdb
 127 119 0 0 0
SMALL
GASTEIGER

@<TRIPOS>ATOM
      1  N         33.0110   -5.3270  -55.6570 N.3     1  THR1       -0.1218
      2  CA        33.5020   -6.6820  -56.2020 C.3     1  THR1        0.1862
      3  C         32.5920   -7.8120  -55.8380 C.2     1  THR1        0.2287
      4  O         31.9290   -7.7450  -54.7800 O.2     1  THR1       -0.2866
      5  CB        35.1140   -7.0460  -55.8780 C.3     1  THR1        0.1770
      6  OG1       35.8650   -5.9480  -56.4170 O.3     1  THR1       -0.2211
      7  CG2       35.1310   -8.2590  -56.8100 C.3     1  THR1        0.0375
      8  N         33.8490   -6.7620  -61.1900 N.3    19  THR19      -0.1218
      9  CA        33.5630   -5.6180  -60.3440 C.3    19  THR19       0.1862
     10  C         33.5890   -4.2690  -61.0680 C.2    19  THR19       0.2287
     11  O         33.9870   -4.1770  -62.2350 O.2    19  THR19      -0.2866
     12  CB        34.6440   -5.5790  -59.2270 C.3    19  THR19       0.1770
     13  OG1       34.4100   -4.4890  -58.3290 O.3    19  THR19      -0.2211
     14  CG2       36.0320   -5.4050  -59.8720 C.3    19  THR19       0.0375
     15  N         34.8460   -1.9440  -59.1140 N.3    21  ASN21      -0.1225
     16  CA        35.8540   -1.5430  -58.1380 C.3    21  ASN21       0.1785
     17  C         35.1130   -1.1380  -56.8600 C.2    21  ASN21       0.2598
     18  O         34.6960   -2.0130  -56.1200 O.2    21  ASN21      -0.2718
     19  CB        36.7630   -0.4170  -58.6380 C.3    21  ASN21       0.1169
     20  CG        37.8430   -0.0860  -57.6380 C.2    21  ASN21       0.2627
     21  OD1       38.2010   -0.9280  -56.8130 O.2    21  ASN21      -0.2716
     22  ND2       38.3680    1.1270  -57.6950 N.am   21  ASN21      -0.0877
     23  N         34.9120    0.1440  -56.5650 N.am   22  THR22      -0.1939
     24  CA        34.1850    0.4300  -55.3200 C.3    22  THR22       0.2028
     25  C         32.6910    0.1630  -55.5270 C.2    22  THR22       0.2642
     26  O         32.2520   -0.1130  -56.6490 O.2    22  THR22      -0.2714
     27  CB        34.4220    1.8820  -54.8140 C.3    22  THR22       0.1808
     28  OG1       33.7900    2.8180  -55.6880 O.3    22  THR22      -0.2208
     29  CG2       35.9330    2.1780  -54.7460 C.3    22  THR22       0.0379
     30  N         31.9100    0.2230  -54.4510 N.am   23  THR23      -0.1950
     31  CA        30.4690   -0.0530  -54.5220 C.3    23  THR23       0.1897
     32  C         29.7420    0.9510  -55.4210 C.2    23  THR23       0.2313
     33  O         29.6630    2.1310  -55.1050 O.2    23  THR23      -0.2863
     34  CB        29.8670   -0.0580  -53.1080 C.3    23  THR23       0.1794
     35  OG1       30.5830   -1.0170  -52.3160 O.3    23  THR23      -0.2208
     36  CG2       28.3770   -0.4500  -53.1410 C.3    23  THR23       0.0378
     37  N         37.8810    1.8050  -61.8100 N.3    40  GLN40      -0.1245
     38  CA        39.0260    0.8900  -61.8280 C.3    40  GLN40       0.1566
     39  C         40.3720    1.6110  -61.9300 C.2    40  GLN40       0.2260
     40  O         41.3880    1.0870  -61.4800 O.2    40  GLN40      -0.2867
     41  CB        38.9030   -0.0780  -63.0160 C.3    40  GLN40       0.0367
     42  CG        39.1210   -1.5490  -62.6760 C.3    40  GLN40       0.0905
     43  CD        38.0650   -2.0860  -61.7140 C.2    40  GLN40       0.2608
     44  OE1       38.3550   -2.3910  -60.5530 O.2    40  GLN40      -0.2717
     45  NE2       36.8320   -2.1960  -62.1950 N.am   40  GLN40      -0.0878
     46  N         43.0430    1.5830  -59.2440 N.3    43  ASP43      -0.1239
     47  CA        43.8860    0.4330  -58.9410 C.3    43  ASP43       0.1674
     48  C         45.3270    0.6120  -59.4250 C.2    43  ASP43       0.2266
     49  O         46.2080   -0.1930  -59.0900 O.2    43  ASP43      -0.2867
     50  CB        43.2900   -0.8500  -59.5310 C.3    43  ASP43       0.1410
     51  CG        42.1450   -1.4000  -58.6960 C.2    43  ASP43       0.3668
     52  OD1       42.0410   -1.0210  -57.5110 O.co2  43  ASP43      -0.2456
     53  OD2       41.3570   -2.2240  -59.2180 O.co2  43  ASP43      -0.2456
     54  N         42.6980    0.8010  -51.4540 N.3    54  TYR54      -0.1241
     55  CA        42.8500   -0.4530  -50.7080 C.3    54  TYR54       0.1605
     56  C         44.1740   -0.5300  -49.9430 C.2    54  TYR54       0.2264
     57  O         44.5110   -1.5680  -49.3580 O.2    54  TYR54      -0.2867
     58  CB        42.7350   -1.6530  -51.6630 C.3    54  TYR54       0.0534
     59  CG        41.4200   -1.7210  -52.4160 C.ar   54  TYR54      -0.0201
     60  CD1       40.2090   -1.8790  -51.7360 C.ar   54  TYR54      -0.0009
     61  CD2       41.3850   -1.6040  -53.8090 C.ar   54  TYR54      -0.0009
     62  CE1       38.9950   -1.9150  -52.4240 C.ar   54  TYR54       0.0417
     63  CE2       40.1770   -1.6410  -54.5080 C.ar   54  TYR54       0.0417
     64  CZ        38.9850   -1.7960  -53.8080 C.ar   54  TYR54       0.1957
     65  OH        37.7860   -1.8300  -54.4880 O.3    54  TYR54      -0.2866
     66  N         47.1020   -0.4080  -51.2710 N.3    56  LEU56      -0.1245
     67  CA        48.1160   -1.0590  -52.1070 C.3    56  LEU56       0.1561
     68  C         49.0140   -0.0060  -52.7610 C.2    56  LEU56       0.2260
     69  O         48.5570    1.0980  -53.0680 O.2    56  LEU56      -0.2867
     70  CB        47.4390   -1.9120  -53.1940 C.3    56  LEU56       0.0270
     71  CG        46.6090   -3.1210  -52.7420 C.3    56  LEU56       0.0019
     72  CD1       45.8660   -3.7320  -53.9320 C.3    56  LEU56       0.0001
     73  CD2       47.5220   -4.1470  -52.1060 C.3    56  LEU56       0.0001
     74  N         45.1920   -6.0770  -60.3860 N.3    72  SER72      -0.1202
     75  CA        44.0580   -6.4480  -59.5380 C.3    72  SER72       0.2020
     76  C         44.4770   -7.5720  -58.5870 C.2    72  SER72       0.2619
     77  O         45.5210   -8.1930  -58.7820 O.2    72  SER72      -0.2717
     78  CB        42.8880   -6.9180  -60.4150 C.3    72  SER72       0.2103
     79  OG        41.8900   -7.5580  -59.6460 O.3    72  SER72      -0.2182
     80  N         43.6800   -7.8180  -57.5500 N.am   73  SER73      -0.1937
     81  CA        43.9750   -8.8930  -56.6070 C.3    73  SER73       0.2055
     82  C         42.9410  -10.0050  -56.7900 C.2    73  SER73       0.2642
     83  O         43.0450  -11.0620  -56.1720 O.2    73  SER73      -0.2714
     84  CB        43.9030   -8.4080  -55.1540 C.3    73  SER73       0.2130
     85  OG        44.6440   -7.2200  -54.9540 O.3    73  SER73      -0.2179
     86  N         41.9490   -9.7660  -57.6370 N.am   74  MET74      -0.1976
     87  CA        40.9010  -10.7640  -57.8530 C.3    74  MET74       0.1605
     88  C         41.5200  -12.1180  -58.2060 C.2    74  MET74       0.2287
     89  O         42.3790  -12.2160  -59.0950 O.2    74  MET74      -0.2864
     90  CB        39.9470  -10.2920  -58.9430 C.3    74  MET74       0.0413
     91  CG        39.1540   -9.0400  -58.5350 C.3    74  MET74       0.0598
     92  SD        37.8170   -8.6440  -59.6850 S.3    74  MET74      -0.1393
     93  CE        38.6990   -7.7320  -60.9370 C.3    74  MET74       0.0692
     94  N         35.6180  -11.2560  -53.0190 N.3    92  PRO92      -0.2102
     95  CA        35.9370   -9.8350  -53.1810 C.3    92  PRO92       0.1504
     96  C         36.8210   -9.5030  -51.9770 C.2    92  PRO92       0.2576
     97  O         37.1390  -10.3970  -51.1950 O.2    92  PRO92      -0.2718
     98  CB        34.5710   -9.1570  -53.0950 C.3    92  PRO92       0.0282
     99  CG        33.7960  -10.0600  -52.1850 C.3    92  PRO92       0.0208
    100  CD        34.1920  -11.4380  -52.6780 C.3    92  PRO92       0.0893
    101  N         37.2120   -8.2370  -51.8280 N.am   93  GLY93      -0.1943
    102  CA        38.0240   -7.8350  -50.6880 C.3    93  GLY93       0.2014
    103  C         39.3820   -7.2670  -51.0520 C.2    93  GLY93       0.2639
    104  O         40.2880   -7.2170  -50.2170 O.2    93  GLY93      -0.2714
    105  N         39.5120   -6.8320  -52.3000 N.am   94  GLY94      -0.1954
    106  CA        40.7600   -6.2890  -52.7910 C.3    94  GLY94       0.1869
    107  C         41.9760   -7.0030  -52.2470 C.2    94  GLY94       0.2309
    108  O         42.1750   -8.2060  -52.4360 O.2    94  GLY94      -0.2863
    109  N         42.7350   -8.1880  -49.4670 N.3    96  ARG96      -0.1231
    110  CA        42.4960   -9.3970  -48.6820 C.3    96  ARG96       0.1694
    111  C         42.0330  -10.6250  -49.4690 C.2    96  ARG96       0.2591
    112  O         41.9380  -11.7140  -48.9070 O.2    96  ARG96      -0.2718
    113  CB        41.4900   -9.1110  -47.5560 C.3    96  ARG96       0.0321
    114  CG        41.9900   -8.1450  -46.4750 C.3    96  ARG96       0.0489
    115  CD        42.0390   -6.7170  -46.9810 C.3    96  ARG96       0.2205
    116  NE        40.7050   -6.2280  -47.3160 N.pl3  96  ARG96      -0.0865
    117  CZ        40.4700   -5.1050  -47.9870 C.cat  96  ARG96       0.5346
    118  NH1       41.4890   -4.3600  -48.3900 N.pl3  96  ARG96       0.1354
    119  NH2       39.2180   -4.7320  -48.2620 N.pl3  96  ARG96       0.1354
    120  N         41.7530  -10.4600  -50.7560 N.am   97  ILE97      -0.1980
    121  CA        41.2950  -11.5850  -51.5800 C.3    97  ILE97       0.1595
    122  C         42.3020  -12.7350  -51.5090 C.2    97  ILE97       0.2287
    123  O         41.9380  -13.8990  -51.3180 O.2    97  ILE97      -0.2864
    124  CB        41.0920  -11.1490  -53.0540 C.3    97  ILE97       0.0276
    125  CG1       39.8640  -10.2450  -53.1510 C.3    97  ILE97       0.0022
    126  CG2       40.8980  -12.3860  -53.9630 C.3    97  ILE97       0.0022
    127  CD1       39.7570   -9.4670  -54.4450 C.3    97  ILE97       0.0001
@<TRIPOS>BOND
     1    41    42    1
     2    41    38    1
     3    42    43    1
     4    11    10    2
     5    45    43   am
     6    39    38    1
     7    39    40    2
     8    38    37    1
     9    43    44    2
    10     8     9    1
    11    10     9    1
    12    93    92    1
    13    78    79    1
    14    78    75    1
    15    74    75    1
    16     9    12    1
    17    14    12    1
    18    92    91    1
    19    75    76    1
    20    50    47    1
    21    50    51    1
    22    48    49    2
    23    48    47    1
    24    46    47    1
    25    12    13    1
    26    53    51   ar
    27    15    16    1
    28    89    88    2
    29    90    91    1
    30    90    87    1
    31    77    76    2
    32    51    52   ar
    33    19    16    1
    34    19    20    1
    35    76    80   am
    36    88    87    1
    37    16    17    1
    38    87    86    1
    39    22    20   am
    40    20    21    2
    41    86    82   am
    42    80    81    1
    43    17    23   am
    44    17    18    2
    45     7     5    1
    46    82    81    1
    47    82    83    2
    48    26    25    2
    49    81    84    1
    50    23    24    1
    51     6     5    1
    52     2     5    1
    53     2     3    1
    54     2     1    1
    55     3     4    2
    56    28    27    1
    57    25    24    1
    58    25    30   am
    59    32    33    2
    60    32    31    1
    61    24    27    1
    62    84    85    1
    63    27    29    1
    64    31    30    1
    65    31    34    1
    66    63    61   ar
    67    63    64   ar
    68    65    64    1
    69   127   125    1
    70   126   124    1
    71    72    71    1
    72    61    59   ar
    73    64    62   ar
    74    70    71    1
    75    70    67    1
    76    95    98    1
    77    95    94    1
    78    95    96    1
    79   125   124    1
    80    36    34    1
    81    34    35    1
    82    98    99    1
    83    69    68    2
    84   124   121    1
    85    94   100    1
    86   106   105    1
    87   106   107    1
    88    68    67    1
    89    71    73    1
    90   100    99    1
    91   108   107    2
    92    62    60   ar
    93    59    60   ar
    94    59    58    1
    95   105   103   am
    96    67    66    1
    97    96   101   am
    98    96    97    2
    99   101   102    1
   100    58    55    1
   101   121   122    1
   102   121   120    1
   103   122   123    2
   104    54    55    1
   105   103   102    1
   106   103   104    2
   107   120   111   am
   108    55    56    1
   109    56    57    2
   110   111   112    2
   111   111   110    1
   112   109   110    1
   113   110   113    1
   114   118   117    1
   115   119   117    1
   116   117   116    2
   117   113   114    1
   118   116   115    1
   119   115   114    1
