@<TRIPOS>MOLECULE
tmp/2z8kB00.pdb
 102 94 0 0 0
SMALL
GASTEIGER

@<TRIPOS>ATOM
      1  N         13.5900  -33.7390  -30.9120 N.3     1  THR1       -0.1218
      2  CA        13.1240  -32.4020  -30.5670 C.3     1  THR1        0.1862
      3  C         13.3480  -31.3840  -31.6750 C.2     1  THR1        0.2287
      4  O         14.2490  -31.5200  -32.5000 O.2     1  THR1       -0.2866
      5  CB        13.8430  -31.8600  -29.3040 C.3     1  THR1        0.1770
      6  OG1       13.4210  -32.6030  -28.1570 O.3     1  THR1       -0.2211
      7  CG2       13.5300  -30.3820  -29.0880 C.3     1  THR1        0.0375
      8  N          8.7300  -32.5870  -29.0030 N.3    19  THR19      -0.1218
      9  CA         9.5280  -33.7050  -29.4710 C.3    19  THR19       0.1862
     10  C          8.8760  -35.0860  -29.3780 C.2    19  THR19       0.2287
     11  O          7.8300  -35.2630  -28.7570 O.2    19  THR19      -0.2866
     12  CB        10.8040  -33.7270  -28.5880 C.3    19  THR19       0.1770
     13  OG1       11.6850  -34.7790  -28.9820 O.3    19  THR19      -0.2211
     14  CG2       10.4060  -33.9410  -27.1250 C.3    19  THR19       0.0375
     15  N         11.1800  -37.3150  -28.7320 N.3    21  ASN21      -0.1240
     16  CA        12.4050  -37.6570  -28.0010 C.3    21  ASN21       0.1653
     17  C         13.4710  -37.9100  -29.0600 C.2    21  ASN21       0.2266
     18  O         13.9470  -36.9560  -29.6620 O.2    21  ASN21      -0.2867
     19  CB        12.2760  -38.8720  -27.0760 C.3    21  ASN21       0.1155
     20  CG        13.5550  -39.1050  -26.2780 C.2    21  ASN21       0.2627
     21  OD1       14.4050  -38.2110  -26.1980 O.2    21  ASN21      -0.2716
     22  ND2       13.6980  -40.2840  -25.6850 N.am   21  ASN21      -0.0877
     23  N          9.5440  -41.1160  -25.1380 N.3    40  GLN40      -0.1245
     24  CA         9.8580  -40.2040  -24.0440 C.3    40  GLN40       0.1566
     25  C         10.1180  -40.9030  -22.7140 C.2    40  GLN40       0.2260
     26  O         10.7080  -40.3130  -21.8080 O.2    40  GLN40      -0.2867
     27  CB         8.7180  -39.1960  -23.8530 C.3    40  GLN40       0.0367
     28  CG         9.1990  -37.7700  -23.6170 C.3    40  GLN40       0.0905
     29  CD         9.7560  -37.1450  -24.8830 C.2    40  GLN40       0.2608
     30  OE1       10.8880  -36.6530  -24.9060 O.2    40  GLN40      -0.2717
     31  NE2        8.9590  -37.1660  -25.9520 N.am   40  GLN40      -0.0878
     32  N         13.3580  -40.8120  -20.7450 N.3    43  ASP43      -0.1239
     33  CA        13.7840  -39.6280  -19.9950 C.3    43  ASP43       0.1674
     34  C         13.6610  -39.8270  -18.4860 C.2    43  ASP43       0.2266
     35  O         14.1360  -39.0050  -17.7060 O.2    43  ASP43      -0.2867
     36  CB        13.0020  -38.3800  -20.4300 C.3    43  ASP43       0.1410
     37  CG        13.5480  -37.7650  -21.7090 C.2    43  ASP43       0.3668
     38  OD1       14.6710  -38.1300  -22.1290 O.co2  43  ASP43      -0.2456
     39  OD2       12.8580  -36.9010  -22.2890 O.co2  43  ASP43      -0.2456
     40  N         21.0710  -39.9720  -23.1570 N.3    54  TYR54      -0.1241
     41  CA        21.8270  -38.7180  -23.1980 C.3    54  TYR54       0.1605
     42  C         22.9050  -38.6430  -22.1250 C.2    54  TYR54       0.2264
     43  O         23.5630  -37.6160  -21.9700 O.2    54  TYR54      -0.2867
     44  CB        20.8830  -37.5200  -23.0550 C.3    54  TYR54       0.0534
     45  CG        19.8110  -37.4920  -24.1180 C.ar   54  TYR54      -0.0201
     46  CD1       20.1460  -37.3770  -25.4660 C.ar   54  TYR54      -0.0009
     47  CD2       18.4700  -37.6490  -23.7820 C.ar   54  TYR54      -0.0009
     48  CE1       19.1680  -37.4270  -26.4540 C.ar   54  TYR54       0.0417
     49  CE2       17.4830  -37.7010  -24.7640 C.ar   54  TYR54       0.0417
     50  CZ        17.8410  -37.5930  -26.0960 C.ar   54  TYR54       0.1957
     51  OH        16.8760  -37.6700  -27.0710 O.3    54  TYR54      -0.2866
     52  N         22.3090  -38.8640  -18.9630 N.3    56  LEU56      -0.1245
     53  CA        21.7370  -38.2750  -17.7620 C.3    56  LEU56       0.1561
     54  C         21.3810  -39.3560  -16.7450 C.2    56  LEU56       0.2260
     55  O         21.0240  -40.4790  -17.1070 O.2    56  LEU56      -0.2867
     56  CB        20.4940  -37.4520  -18.1180 C.3    56  LEU56       0.0270
     57  CG        20.7650  -36.1710  -18.9190 C.3    56  LEU56       0.0019
     58  CD1       19.4570  -35.6130  -19.4490 C.3    56  LEU56       0.0001
     59  CD2       21.4740  -35.1410  -18.0410 C.3    56  LEU56       0.0001
     60  N         12.3950  -33.3840  -18.2800 N.3    72  SER72      -0.1202
     61  CA        12.8650  -32.9160  -19.5790 C.3    72  SER72       0.2020
     62  C         13.9710  -31.8800  -19.4080 C.2    72  SER72       0.2619
     63  O         14.2060  -31.3910  -18.3050 O.2    72  SER72      -0.2717
     64  CB        11.6970  -32.2880  -20.3470 C.3    72  SER72       0.2103
     65  OG        12.1130  -31.7810  -21.6020 O.3    72  SER72      -0.2182
     66  N         14.6510  -31.5650  -20.5050 N.am   73  SER73      -0.1937
     67  CA        15.6980  -30.5440  -20.5090 C.3    73  SER73       0.2055
     68  C         15.2780  -29.4300  -21.4640 C.2    73  SER73       0.2642
     69  O         15.9970  -28.4420  -21.6240 O.2    73  SER73      -0.2714
     70  CB        17.0320  -31.1190  -20.9880 C.3    73  SER73       0.2130
     71  OG        17.5230  -32.1010  -20.0920 O.3    73  SER73      -0.2179
     72  N         14.1190  -29.5930  -22.1020 N.am   74  MET74      -0.1976
     73  CA        13.6260  -28.5990  -23.0590 C.3    74  MET74       0.1605
     74  C         13.5370  -27.2160  -22.4420 C.2    74  MET74       0.2287
     75  O         12.9690  -27.0350  -21.3600 O.2    74  MET74      -0.2864
     76  CB        12.2730  -29.0330  -23.6310 C.3    74  MET74       0.0413
     77  CG        12.4170  -30.2380  -24.5540 C.3    74  MET74       0.0598
     78  SD        10.9160  -30.6690  -25.4570 S.3    74  MET74      -0.1393
     79  CE        10.1340  -31.7650  -24.2870 C.3    74  MET74       0.0692
     80  N         16.9300  -28.0300  -29.7610 N.3    92  PRO92      -0.2102
     81  CA        16.8440  -29.4640  -29.4820 C.3    92  PRO92       0.1504
     82  C         18.2230  -29.8430  -28.9400 C.2    92  PRO92       0.2576
     83  O         19.0990  -28.9780  -28.8180 O.2    92  PRO92      -0.2718
     84  CB        16.5900  -30.0700  -30.8590 C.3    92  PRO92       0.0282
     85  CG        17.3380  -29.1330  -31.7690 C.3    92  PRO92       0.0208
     86  CD        16.9330  -27.7860  -31.2160 C.3    92  PRO92       0.0893
     87  N         18.4210  -31.1140  -28.6090 N.am   93  GLY93      -0.1943
     88  CA        19.7220  -31.5320  -28.1170 C.3    93  GLY93       0.2014
     89  C         19.7260  -32.3720  -26.8580 C.2    93  GLY93       0.2639
     90  O         20.7830  -32.5760  -26.2590 O.2    93  GLY93      -0.2714
     91  N         18.5630  -32.8720  -26.4560 N.am   94  GLY94      -0.1954
     92  CA        18.4990  -33.6770  -25.2490 C.3    94  GLY94       0.1869
     93  C         19.1440  -32.9610  -24.0760 C.2    94  GLY94       0.2309
     94  O         18.7690  -31.8450  -23.7350 O.2    94  GLY94      -0.2863
     95  N         20.4200  -29.2210  -24.4460 N.3    97  ILE97      -0.1245
     96  CA        19.5330  -28.0720  -24.6190 C.3    97  ILE97       0.1561
     97  C         19.8690  -26.9660  -23.6170 C.2    97  ILE97       0.2260
     98  O         19.9510  -25.7920  -23.9730 O.2    97  ILE97      -0.2867
     99  CB        18.0540  -28.4690  -24.4290 C.3    97  ILE97       0.0252
    100  CG1       17.6310  -29.4330  -25.5390 C.3    97  ILE97       0.0019
    101  CG2       17.1740  -27.2160  -24.4240 C.3    97  ILE97       0.0019
    102  CD1       16.3140  -30.1630  -25.2890 C.3    97  ILE97       0.0001
@<TRIPOS>BOND
     1     4     3    2
     2    85    86    1
     3    85    84    1
     4     3     2    1
     5    86    80    1
     6     1     2    1
     7    84    81    1
     8     2     5    1
     9    80    81    1
    10    18    17    2
    11    81    82    1
    12     9    10    1
    13     9     8    1
    14     9    12    1
    15    10    11    2
    16     5     7    1
    17     5     6    1
    18    17    16    1
    19    13    12    1
    20    82    83    2
    21    82    87   am
    22    15    16    1
    23    87    88    1
    24    12    14    1
    25    88    89    1
    26    16    19    1
    27    19    20    1
    28    51    50    1
    29    89    91   am
    30    89    90    2
    31    91    92    1
    32    48    50   ar
    33    48    46   ar
    34    20    21    2
    35    20    22   am
    36    50    49   ar
    37    31    29   am
    38   100   102    1
    39   100    99    1
    40    46    45   ar
    41    78    77    1
    42    78    79    1
    43    92    93    1
    44    23    24    1
    45    30    29    2
    46    29    28    1
    47    49    47   ar
    48    96    95    1
    49    96    99    1
    50    96    97    1
    51    77    76    1
    52    99   101    1
    53    45    47   ar
    54    45    44    1
    55    93    94    2
    56    24    27    1
    57    24    25    1
    58    98    97    2
    59    27    28    1
    60    76    73    1
    61    41    40    1
    62    41    44    1
    63    41    42    1
    64    73    74    1
    65    73    72    1
    66    25    26    2
    67    74    75    2
    68    39    37   ar
    69    38    37   ar
    70    42    43    2
    71    72    68   am
    72    37    36    1
    73    69    68    2
    74    65    64    1
    75    68    67    1
    76    70    67    1
    77    70    71    1
    78    32    33    1
    79    67    66    1
    80    66    62   am
    81    36    33    1
    82    64    61    1
    83    33    34    1
    84    61    62    1
    85    61    60    1
    86    58    57    1
    87    62    63    2
    88    52    53    1
    89    57    56    1
    90    57    59    1
    91    34    35    2
    92    56    53    1
    93    53    54    1
    94    55    54    2
