@<TRIPOS>MOLECULE
tmp/2z8pA00.pdb
 205 194 0 0 0
SMALL
GASTEIGER

@<TRIPOS>ATOM
      1  N         15.6920   12.3530    2.0200 N.3    59  TYR59      -0.1227
      2  CA        15.8360   10.8890    1.9920 C.3    59  TYR59       0.1736
      3  C         16.4430   10.3910    0.6880 C.2    59  TYR59       0.2595
      4  O         17.5920    9.9330    0.6840 O.2    59  TYR59      -0.2718
      5  CB        14.5200   10.1580    2.3370 C.3    59  TYR59       0.0548
      6  CG        13.3050   10.3640    1.4510 C.ar   59  TYR59      -0.0200
      7  CD1       12.8500    9.3360    0.6120 C.ar   59  TYR59      -0.0009
      8  CD2       12.5600   11.5480    1.5130 C.ar   59  TYR59      -0.0009
      9  CE1       11.6710    9.4780   -0.1440 C.ar   59  TYR59       0.0417
     10  CE2       11.3820   11.7070    0.7630 C.ar   59  TYR59       0.0417
     11  CZ        10.9430   10.6650   -0.0620 C.ar   59  TYR59       0.1957
     12  OH         9.7790   10.8050   -0.7920 O.3    59  TYR59      -0.2866
     13  N         15.7180   10.4900   -0.4200 N.am   60  ASP60      -0.1960
     14  CA        16.2930   10.0730   -1.6880 C.3    60  ASP60       0.1840
     15  C         16.6770   11.3160   -2.5120 C.2    60  ASP60       0.2622
     16  O         16.4760   12.4520   -2.0830 O.2    60  ASP60      -0.2715
     17  CB        15.3450    9.1470   -2.4650 C.3    60  ASP60       0.1450
     18  CG        13.9780    9.7420   -2.6790 C.2    60  ASP60       0.3671
     19  OD1       13.8790   10.9480   -2.9720 O.co2  60  ASP60      -0.2456
     20  OD2       12.9940    8.9830   -2.5710 O.co2  60  ASP60      -0.2456
     21  N         17.2420   11.0950   -3.6880 N.am   61  VAL61      -0.1963
     22  CA        17.6980   12.1880   -4.5340 C.3    61  VAL61       0.1727
     23  C         16.6600   12.6890   -5.5350 C.2    61  VAL61       0.2616
     24  O         17.0140   13.3790   -6.4980 O.2    61  VAL61      -0.2715
     25  CB        18.9540   11.7470   -5.3260 C.3    61  VAL61       0.0290
     26  CG1       20.0560   11.3220   -4.3530 C.3    61  VAL61       0.0023
     27  CG2       18.6040   10.5730   -6.2660 C.3    61  VAL61       0.0023
     28  N         15.3940   12.3600   -5.3170 N.am   62  PHE62      -0.1974
     29  CA        14.3740   12.7640   -6.2770 C.3    62  PHE62       0.1639
     30  C         13.3430   13.7460   -5.7710 C.2    62  PHE62       0.2290
     31  O         13.1360   13.9010   -4.5720 O.2    62  PHE62      -0.2864
     32  CB        13.6070   11.5430   -6.7880 C.3    62  PHE62       0.0560
     33  CG        14.4750   10.3520   -7.0660 C.ar   62  PHE62      -0.0200
     34  CD1       14.6870    9.4000   -6.0710 C.ar   62  PHE62      -0.0042
     35  CD2       15.0700   10.1800   -8.3000 C.ar   62  PHE62      -0.0042
     36  CE1       15.4930    8.2870   -6.3140 C.ar   62  PHE62      -0.0003
     37  CE2       15.8770    9.0740   -8.5630 C.ar   62  PHE62      -0.0003
     38  CZ        16.0920    8.1230   -7.5680 C.ar   62  PHE62      -0.0000
     39  N          9.4700   14.2830   -5.8410 N.3    64  HIS64      -0.1241
     40  CA         8.3230   13.4130   -6.0550 C.3    64  HIS64       0.1621
     41  C          7.0510   14.1720   -6.3510 C.2    64  HIS64       0.2264
     42  O          6.8220   15.2760   -5.8260 O.2    64  HIS64      -0.2867
     43  CB         8.1270   12.5390   -4.8040 C.3    64  HIS64       0.0745
     44  CG         9.3510   11.7660   -4.4260 C.ar   64  HIS64       0.0817
     45  ND1        9.5970   10.4890   -4.8810 N.ar   64  HIS64      -0.2268
     46  CD2       10.4330   12.1180   -3.6910 C.ar   64  HIS64       0.1154
     47  CE1       10.7750   10.0860   -4.4420 C.ar   64  HIS64       0.1986
     48  NE2       11.3030   11.0560   -3.7190 N.ar   64  HIS64      -0.2212
     49  N          2.8080   13.3790   -6.7090 N.3    66  ARG66      -0.1245
     50  CA         1.7430   12.3950   -6.5560 C.3    66  ARG66       0.1563
     51  C          0.3500   13.0030   -6.4520 C.2    66  ARG66       0.2260
     52  O          0.0630   13.8060   -5.5610 O.2    66  ARG66      -0.2867
     53  CB         1.9920   11.5100   -5.3210 C.3    66  ARG66       0.0307
     54  CG         0.9710   10.3880   -5.1740 C.3    66  ARG66       0.0489
     55  CD         1.3210    9.4310   -4.0270 C.3    66  ARG66       0.2205
     56  NE         0.3970    8.2980   -3.9780 N.pl3  66  ARG66      -0.0865
     57  CZ        -0.8750    8.3790   -3.5940 C.cat  66  ARG66       0.5346
     58  NH1       -1.3970    9.5400   -3.2060 N.pl3  66  ARG66       0.1354
     59  NH2       -1.6460    7.2960   -3.6190 N.pl3  66  ARG66       0.1354
     60  N         -5.1040    9.1320   -5.6490 N.3    69  SER69      -0.1217
     61  CA        -5.6260    7.9950   -6.3930 C.3    69  SER69       0.1889
     62  C         -7.1510    7.8990   -6.3060 C.2    69  SER69       0.2288
     63  O         -7.7560    8.1530   -5.2610 O.2    69  SER69      -0.2866
     64  CB        -5.0060    6.6960   -5.8560 C.3    69  SER69       0.2089
     65  OG        -3.6190    6.6490   -6.1140 O.3    69  SER69      -0.2183
     66  N         -0.9330   -1.0200   -7.3490 N.3    76  PHE76      -0.1241
     67  CA         0.2890   -1.0250   -8.1640 C.3    76  PHE76       0.1605
     68  C          0.7260   -2.4490   -8.4790 C.2    76  PHE76       0.2264
     69  O          0.8920   -3.2750   -7.5690 O.2    76  PHE76      -0.2867
     70  CB         1.4150   -0.2990   -7.4380 C.3    76  PHE76       0.0534
     71  CG         2.7020   -0.2570   -8.2080 C.ar   76  PHE76      -0.0203
     72  CD1        2.7480    0.3230   -9.4760 C.ar   76  PHE76      -0.0042
     73  CD2        3.8720   -0.7570   -7.6580 C.ar   76  PHE76      -0.0042
     74  CE1        3.9460    0.4070  -10.1890 C.ar   76  PHE76      -0.0003
     75  CE2        5.1010   -0.6780   -8.3630 C.ar   76  PHE76      -0.0003
     76  CZ         5.1330   -0.0900   -9.6350 C.ar   76  PHE76      -0.0000
     77  N          6.2630    0.2670  -14.7080 N.3    80  LYS80      -0.1245
     78  CA         6.7300    1.6430  -14.6920 C.3    80  LYS80       0.1561
     79  C          7.6610    1.9490  -15.8470 C.2    80  LYS80       0.2260
     80  O          8.2170    1.0510  -16.4710 O.2    80  LYS80      -0.2867
     81  CB         7.4240    1.9550  -13.3560 C.3    80  LYS80       0.0271
     82  CG         8.7270    1.2000  -13.0930 C.3    80  LYS80       0.0035
     83  CD         9.1680    1.4540  -11.6550 C.3    80  LYS80       0.0206
     84  CE        10.5990    0.9940  -11.4200 C.3    80  LYS80       0.1093
     85  NZ        11.0370    1.3010  -10.0200 N.3    80  LYS80      -0.1314
     86  N         10.8960    4.6760  -17.3850 N.3    82  HIS82      -0.1241
     87  CA        11.9400    5.6510  -17.0870 C.3    82  HIS82       0.1621
     88  C         12.0560    6.5040  -18.3530 C.2    82  HIS82       0.2264
     89  O         11.6510    6.0860  -19.4420 O.2    82  HIS82      -0.2867
     90  CB        13.3000    5.0010  -16.8100 C.3    82  HIS82       0.0745
     91  CG        13.3700    4.2720  -15.5120 C.ar   82  HIS82       0.0817
     92  ND1       13.5680    2.9100  -15.4340 N.ar   82  HIS82      -0.2268
     93  CD2       13.2690    4.7160  -14.2360 C.ar   82  HIS82       0.1154
     94  CE1       13.5850    2.5420  -14.1620 C.ar   82  HIS82       0.1986
     95  NE2       13.4060    3.6200  -13.4150 N.ar   82  HIS82      -0.2212
     96  N          1.5320    9.1630  -10.4100 N.3   110  LYS110     -0.1245
     97  CA         2.7400    9.2740   -9.6180 C.3   110  LYS110      0.1561
     98  C          3.9840    9.1880  -10.4650 C.2   110  LYS110      0.2260
     99  O          4.1300    8.3090  -11.3160 O.2   110  LYS110     -0.2867
    100  CB         2.7740    8.1640   -8.5620 C.3   110  LYS110      0.0271
    101  CG         3.9950    8.2040   -7.6250 C.3   110  LYS110      0.0035
    102  CD         4.1490    6.8780   -6.8620 C.3   110  LYS110      0.0206
    103  CE         3.6560    6.9770   -5.4380 C.3   110  LYS110      0.1093
    104  NZ         3.9830    5.7400   -4.6360 N.3   110  LYS110     -0.1314
    105  N         22.6760   14.4180   -6.8720 N.3   119  VAL119     -0.1231
    106  CA        23.4100   13.2330   -7.3200 C.3   119  VAL119      0.1692
    107  C         24.6670   13.5790   -8.0520 C.2   119  VAL119      0.2591
    108  O         24.7700   14.6530   -8.6480 O.2   119  VAL119     -0.2718
    109  CB        22.5790   12.3480   -8.2840 C.3   119  VAL119      0.0266
    110  CG1       21.4420   11.7240   -7.5310 C.3   119  VAL119      0.0020
    111  CG2       22.0810   13.1790   -9.4560 C.3   119  VAL119      0.0020
    112  N         25.6270   12.6590   -7.9970 N.am  120  VAL120     -0.1980
    113  CA        26.8870   12.8220   -8.7030 C.3   120  VAL120      0.1595
    114  C         26.5420   12.6900  -10.1810 C.2   120  VAL120      0.2287
    115  O         25.6370   11.9410  -10.5380 O.2   120  VAL120     -0.2864
    116  CB        27.8870   11.7160   -8.2870 C.3   120  VAL120      0.0276
    117  CG1       28.0310   11.6680   -6.8020 C.3   120  VAL120      0.0022
    118  CG2       27.3890   10.3730   -8.8130 C.3   120  VAL120      0.0022
    119  N         26.1310    9.2020  -11.9860 N.3   123  ALA123     -0.1231
    120  CA        25.1550    8.2810  -11.3950 C.3   123  ALA123      0.1694
    121  C         24.1820    7.6890  -12.4180 C.2   123  ALA123      0.2592
    122  O         23.8630    8.3190  -13.4110 O.2   123  ALA123     -0.2718
    123  CB        24.3450    9.0280  -10.3230 C.3   123  ALA123      0.0304
    124  N         23.6920    6.4890  -12.1380 N.am  124  ARG124     -0.1966
    125  CA        22.7220    5.8200  -13.0040 C.3   124  ARG124      0.1729
    126  C         21.4880    6.7000  -13.2650 C.2   124  ARG124      0.2616
    127  O         21.0260    6.7650  -14.3930 O.2   124  ARG124     -0.2715
    128  CB        22.3180    4.4860  -12.3630 C.3   124  ARG124      0.0348
    129  CG        21.0140    3.8630  -12.8780 C.3   124  ARG124      0.0492
    130  CD        20.7770    2.5130  -12.2270 C.3   124  ARG124      0.2205
    131  NE        19.5520    1.8660  -12.7020 N.pl3 124  ARG124     -0.0865
    132  CZ        18.3380    2.0830  -12.2010 C.cat 124  ARG124      0.5346
    133  NH1       18.1550    2.9410  -11.1910 N.pl3 124  ARG124      0.1354
    134  NH2       17.3000    1.4270  -12.7100 N.pl3 124  ARG124      0.1354
    135  N         20.9630    7.3780  -12.2360 N.am  125  VAL125     -0.1977
    136  CA        19.7980    8.2410  -12.4180 C.3   125  VAL125      0.1596
    137  C         20.1880    9.6740  -12.8100 C.2   125  VAL125      0.2287
    138  O         19.3560   10.5850  -12.7900 O.2   125  VAL125     -0.2864
    139  CB        18.8860    8.2650  -11.1510 C.3   125  VAL125      0.0276
    140  CG1       18.3130    6.8590  -10.9090 C.3   125  VAL125      0.0022
    141  CG2       19.6680    8.7270   -9.9330 C.3   125  VAL125      0.0022
    142  N         17.6110    7.7550  -17.0460 N.3   129  ALA129     -0.1245
    143  CA        16.5540    7.4270  -16.1000 C.3   129  ALA129      0.1562
    144  C         16.3250    8.5410  -15.0780 C.2   129  ALA129      0.2260
    145  O         16.1390    8.2750  -13.8630 O.2   129  ALA129     -0.2867
    146  CB        16.8920    6.1290  -15.3860 C.3   129  ALA129      0.0290
    147  N         10.8960    8.7930  -13.5730 N.3   132  THR132     -0.1218
    148  CA        10.2790    7.4940  -13.3930 C.3   132  THR132      0.1862
    149  C          8.7670    7.7650  -13.3600 C.2   132  THR132      0.2287
    150  O          8.3100    8.6310  -12.6090 O.2   132  THR132     -0.2866
    151  CB        10.6800    6.8100  -12.0560 C.3   132  THR132      0.1770
    152  OG1       12.1030    6.6640  -11.9770 O.3   132  THR132     -0.2211
    153  CG2       10.0810    5.4260  -12.0020 C.3   132  THR132      0.0375
    154  N          5.1250    5.9070  -12.7020 N.3   134  TYR134     -0.1241
    155  CA         4.5080    4.7080  -12.1760 C.3   134  TYR134      0.1605
    156  C          3.1210    4.5270  -12.7300 C.2   134  TYR134      0.2264
    157  O          2.3330    5.4790  -12.8010 O.2   134  TYR134     -0.2867
    158  CB         4.4480    4.7560  -10.6390 C.3   134  TYR134      0.0534
    159  CG         5.7840    5.0220  -10.0380 C.ar  134  TYR134     -0.0201
    160  CD1        6.1900    6.3230   -9.7490 C.ar  134  TYR134     -0.0009
    161  CD2        6.6800    3.9730   -9.7880 C.ar  134  TYR134     -0.0009
    162  CE1        7.4470    6.5810   -9.2320 C.ar  134  TYR134      0.0417
    163  CE2        7.9400    4.2170   -9.2580 C.ar  134  TYR134      0.0417
    164  CZ         8.3170    5.5190   -8.9870 C.ar  134  TYR134      0.1957
    165  OH         9.5760    5.7790   -8.5160 O.3   134  TYR134     -0.2866
    166  N         -0.5000    2.1420  -12.5980 N.3   136  LYS136     -0.1245
    167  CA        -1.2130    1.1200  -11.8610 C.3   136  LYS136      0.1561
    168  C         -2.5150    0.8110  -12.5600 C.2   136  LYS136      0.2260
    169  O         -3.0440    1.6480  -13.3000 O.2   136  LYS136     -0.2867
    170  CB        -1.4200    1.4730  -10.3870 C.3   136  LYS136      0.0271
    171  CG        -1.8690    2.8270  -10.0930 C.3   136  LYS136      0.0035
    172  CD        -1.4750    3.2230   -8.6480 C.3   136  LYS136      0.0206
    173  CE        -2.5870    2.9750   -7.6340 C.3   136  LYS136      0.1093
    174  NZ        -2.7230    4.1530   -6.7120 N.3   136  LYS136     -0.1314
    175  N         10.3920   -1.4090  -17.1840 N.3   189  ARG189     -0.1245
    176  CA        10.7300   -2.5340  -16.3380 C.3   189  ARG189      0.1563
    177  C          9.5770   -2.7230  -15.3650 C.2   189  ARG189      0.2260
    178  O          8.8250   -1.7870  -15.0910 O.2   189  ARG189     -0.2867
    179  CB        12.0640   -2.3380  -15.5970 C.3   189  ARG189      0.0307
    180  CG        12.0180   -1.8210  -14.1630 C.3   189  ARG189      0.0489
    181  CD        13.4570   -1.7900  -13.6070 C.3   189  ARG189      0.2205
    182  NE        13.5220   -1.3280  -12.2110 N.pl3 189  ARG189     -0.0865
    183  CZ        13.2930   -2.0960  -11.1410 C.cat 189  ARG189      0.5346
    184  NH1       12.9810   -3.3930  -11.2690 N.pl3 189  ARG189      0.1354
    185  NH2       13.3630   -1.5590   -9.9290 N.pl3 189  ARG189      0.1354
    186  N          8.8820   -3.7000  -11.5560 N.3   191  GLU191     -0.1245
    187  CA         9.6630   -3.9080  -10.3470 C.3   191  GLU191      0.1567
    188  C          9.2900   -5.0870   -9.4860 C.2   191  GLU191      0.2260
    189  O          9.9780   -5.3710   -8.5150 O.2   191  GLU191     -0.2867
    190  CB         9.7680   -2.6210   -9.5090 C.3   191  GLU191      0.0388
    191  CG         8.5080   -1.9800   -9.0640 C.3   191  GLU191      0.1160
    192  CD         8.7780   -0.9740   -7.9240 C.2   191  GLU191      0.3649
    193  OE1        8.4220   -1.2690   -6.7570 O.co2 191  GLU191     -0.2457
    194  OE2        9.3520    0.1080   -8.1980 O.co2 191  GLU191     -0.2457
    195  N         17.3110   -3.8730  -10.4010 N.3   196  ARG196     -0.1245
    196  CA        18.0420   -2.7710  -11.0280 C.3   196  ARG196      0.1563
    197  C         19.2580   -3.2160  -11.8170 C.2   196  ARG196      0.2260
    198  O         19.7800   -2.4640  -12.6340 O.2   196  ARG196     -0.2867
    199  CB        18.4940   -1.7590   -9.9810 C.3   196  ARG196      0.0307
    200  CG        17.3770   -0.9990   -9.3750 C.3   196  ARG196      0.0489
    201  CD        17.8930    0.0150   -8.3780 C.3   196  ARG196      0.2205
    202  NE        16.7710    0.7580   -7.8310 N.pl3 196  ARG196     -0.0865
    203  CZ        15.7270    0.1950   -7.2260 C.cat 196  ARG196      0.5346
    204  NH1       15.6610   -1.1150   -7.0750 N.pl3 196  ARG196      0.1354
    205  NH2       14.7270    0.9400   -6.8050 N.pl3 196  ARG196      0.1354
@<TRIPOS>BOND
     1    89    88    2
     2    88    87    1
     3    86    87    1
     4   175   176    1
     5    87    90    1
     6   142   143    1
     7    90    91    1
     8    80    79    2
     9   176   179    1
    10   176   177    1
    11   143   146    1
    12   143   144    1
    13    79    78    1
    14   179   180    1
    15    91    92   ar
    16    91    93   ar
    17    92    94   ar
    18   177   178    2
    19   144   145    2
    20    77    78    1
    21    78    81    1
    22   127   126    2
    23    93    95   ar
    24   180   181    1
    25    94    95   ar
    26   181   182    1
    27   147   148    1
    28   122   121    2
    29   148   149    1
    30   148   151    1
    31   149   150    2
    32    81    82    1
    33   169   168    2
    34   126   125    1
    35   126   135   am
    36    82    83    1
    37   125   128    1
    38   125   124    1
    39   129   128    1
    40   129   130    1
    41   137   138    2
    42   137   136    1
    43   157   156    2
    44   156   155    1
    45   134   132    1
    46   154   155    1
    47   131   130    1
    48   131   132    2
    49   198   197    2
    50   166   167    1
    51   168   167    1
    52   121   124   am
    53   121   120    1
    54   136   135    1
    55   136   139    1
    56   182   183    2
    57   132   133    1
    58   155   158    1
    59   151   153    1
    60   151   152    1
    61   119   120    1
    62   167   170    1
    63   197   196    1
    64    83    84    1
    65   186   187    1
    66    84    85    1
    67   120   123    1
    68    99    98    2
    69   184   183    1
    70   139   140    1
    71   139   141    1
    72   183   185    1
    73   196   195    1
    74   196   199    1
    75   158   159    1
    76   115   114    2
    77    98    97    1
    78    96    97    1
    79   170   171    1
    80   187   190    1
    81   187   188    1
    82    74    76   ar
    83    74    72   ar
    84   114   113    1
    85   171   172    1
    86   159   161   ar
    87   159   160   ar
    88   199   200    1
    89   161   163   ar
    90   160   162   ar
    91    76    75   ar
    92    97   100    1
    93   190   191    1
    94   188   189    2
    95    72    71   ar
    96   111   109    1
    97   200   201    1
    98   163   164   ar
    99   162   164   ar
   100   191   192    1
   101   164   165    1
   102   118   116    1
   103   113   116    1
   104   113   112    1
   105   108   107    2
   106   172   173    1
   107    37    35   ar
   108    37    38   ar
   109   100   101    1
   110    68    67    1
   111    68    69    2
   112   201   202    1
   113    75    73   ar
   114    35    33   ar
   115   116   117    1
   116   109   110    1
   117   109   106    1
   118    71    73   ar
   119    71    70    1
   120   194   192   ar
   121    67    70    1
   122    67    66    1
   123   107   112   am
   124   107   106    1
   125   192   193   ar
   126   202   203    2
   127   173   174    1
   128   101   102    1
   129    38    36   ar
   130   106   105    1
   131   203   204    1
   132   203   205    1
   133    33    32    1
   134    33    34   ar
   135   102   103    1
   136    32    29    1
   137    49    50    1
   138    50    51    1
   139    50    53    1
   140    24    23    2
   141    51    52    2
   142    61    62    1
   143    61    64    1
   144    61    60    1
   145    41    40    1
   146    41    42    2
   147    36    34   ar
   148    62    63    2
   149    29    30    1
   150    29    28    1
   151    27    25    1
   152    65    64    1
   153    40    39    1
   154    40    43    1
   155    30    31    2
   156    23    28   am
   157    23    22    1
   158   103   104    1
   159    25    22    1
   160    25    26    1
   161    53    54    1
   162    54    55    1
   163    45    47   ar
   164    45    44   ar
   165    43    44    1
   166    22    21    1
   167    47    48   ar
   168    44    46   ar
   169    55    56    1
   170    56    57    2
   171    48    46   ar
   172    21    15   am
   173    59    57    1
   174    57    58    1
   175    19    18   ar
   176    18    20   ar
   177    18    17    1
   178    15    16    2
   179    15    14    1
   180    17    14    1
   181    14    13    1
   182    12    11    1
   183    13     3   am
   184     9    11   ar
   185     9     7   ar
   186    11    10   ar
   187     7     6   ar
   188     4     3    2
   189     3     2    1
   190    10     8   ar
   191     6     8   ar
   192     6     5    1
   193     2     1    1
   194     2     5    1
