@<TRIPOS>MOLECULE
tmp/2z8rA00.pdb
 98 94 0 0 0
SMALL
GASTEIGER

@<TRIPOS>ATOM
      1  N         26.4110   36.2230   21.9480 N.3    12  LEU12      -0.1231
      2  CA        27.7780   36.4930   22.3420 C.3    12  LEU12       0.1693
      3  C         28.2550   35.4940   23.3850 C.2    12  LEU12       0.2591
      4  O         27.5620   35.2410   24.3780 O.2    12  LEU12      -0.2718
      5  CB        27.8850   37.9210   22.8880 C.3    12  LEU12       0.0284
      6  CG        29.2920   38.4340   23.1730 C.3    12  LEU12       0.0019
      7  CD1       30.1120   38.5280   21.8820 C.3    12  LEU12       0.0001
      8  CD2       29.1860   39.7900   23.8350 C.3    12  LEU12       0.0001
      9  N         29.4380   34.9380   23.1570 N.am   13  VAL13      -0.1980
     10  CA        30.0480   33.9940   24.0740 C.3    13  VAL13       0.1595
     11  C         31.5230   34.3600   24.2220 C.2    13  VAL13       0.2287
     12  O         32.1450   34.8690   23.2770 O.2    13  VAL13      -0.2864
     13  CB        29.8510   32.5140   23.5910 C.3    13  VAL13       0.0276
     14  CG1       30.6660   32.2220   22.3410 C.3    13  VAL13       0.0022
     15  CG2       30.2010   31.5280   24.6750 C.3    13  VAL13       0.0022
     16  N         28.1250   39.3920   28.0270 N.3    84  ALA84      -0.1231
     17  CA        28.6110   38.0140   28.1730 C.3    84  ALA84       0.1694
     18  C         29.7720   37.8830   29.1510 C.2    84  ALA84       0.2593
     19  O         30.7710   38.5890   29.0390 O.2    84  ALA84      -0.2718
     20  CB        28.9970   37.4200   26.8100 C.3    84  ALA84       0.0304
     21  N         29.6320   36.9650   30.1040 N.am   85  SER85      -0.1938
     22  CA        30.7070   36.6380   31.0370 C.3    85  SER85       0.2055
     23  C         31.5820   35.5120   30.4880 C.2    85  SER85       0.2643
     24  O         31.1790   34.7940   29.5740 O.2    85  SER85      -0.2714
     25  CB        30.1340   36.2500   32.4040 C.3    85  SER85       0.2130
     26  OG        29.3640   37.3060   32.9480 O.3    85  SER85      -0.2179
     27  N         32.7740   35.3610   31.0560 N.am   86  VAL86      -0.1963
     28  CA        33.7630   34.4140   30.5570 C.3    86  VAL86       0.1727
     29  C         33.5340   33.0070   31.1060 C.2    86  VAL86       0.2616
     30  O         33.4390   32.8080   32.3250 O.2    86  VAL86      -0.2715
     31  CB        35.1990   34.8820   30.8920 C.3    86  VAL86       0.0290
     32  CG1       36.2190   33.8220   30.5330 C.3    86  VAL86       0.0023
     33  CG2       35.5130   36.2090   30.1800 C.3    86  VAL86       0.0023
     34  N         33.4500   32.0310   30.2020 N.am   87  TRP87      -0.1974
     35  CA        33.3880   30.6310   30.6030 C.3    87  TRP87       0.1640
     36  C         34.7370   30.2310   31.1570 C.2    87  TRP87       0.2290
     37  O         35.7490   30.3050   30.4570 O.2    87  TRP87      -0.2864
     38  CB        33.1290   29.7310   29.4040 C.3    87  TRP87       0.0576
     39  CG        31.7900   29.8420   28.7660 C.ar   87  TRP87       0.0006
     40  CD1       30.8560   30.8280   28.9170 C.ar   87  TRP87       0.0946
     41  CD2       31.2600   28.9220   27.8160 C.ar   87  TRP87       0.0152
     42  NE1       29.7590   30.5640   28.1190 N.ar   87  TRP87      -0.2442
     43  CE2       29.9900   29.3970   27.4340 C.ar   87  TRP87       0.0810
     44  CE3       31.7410   27.7390   27.2500 C.ar   87  TRP87       0.0012
     45  CZ2       29.1850   28.7160   26.5080 C.ar   87  TRP87       0.0191
     46  CZ3       30.9390   27.0690   26.3270 C.ar   87  TRP87       0.0001
     47  CH2       29.6830   27.5590   25.9720 C.ar   87  TRP87       0.0015
     48  N         30.1610   24.9480   28.9170 N.3    92  HIS92      -0.1241
     49  CA        29.2600   25.5130   29.9020 C.3    92  HIS92       0.1621
     50  C         28.3330   24.4150   30.4180 C.2    92  HIS92       0.2264
     51  O         27.6570   23.7370   29.6340 O.2    92  HIS92      -0.2867
     52  CB        28.4220   26.6240   29.2820 C.3    92  HIS92       0.0745
     53  CG        27.3770   27.1600   30.2030 C.ar   92  HIS92       0.0817
     54  ND1       27.6730   28.0020   31.2530 N.ar   92  HIS92      -0.2268
     55  CD2       26.0410   26.9390   30.2620 C.ar   92  HIS92       0.1154
     56  CE1       26.5630   28.2920   31.9080 C.ar   92  HIS92       0.1986
     57  NE2       25.5580   27.6650   31.3220 N.ar   92  HIS92      -0.2212
     58  N         17.6140   34.0150   23.3030 N.3   127  GLN127     -0.1245
     59  CA        18.5130   32.9610   23.7660 C.3   127  GLN127      0.1566
     60  C         17.7280   31.6470   23.8520 C.2   127  GLN127      0.2260
     61  O         16.6330   31.6240   24.4130 O.2   127  GLN127     -0.2867
     62  CB        19.0850   33.3200   25.1410 C.3   127  GLN127      0.0367
     63  CG        20.0170   32.2630   25.6780 C.3   127  GLN127      0.0905
     64  CD        20.5760   32.6030   27.0340 C.2   127  GLN127      0.2608
     65  OE1       21.5340   33.3720   27.1440 O.2   127  GLN127     -0.2717
     66  NE2       20.0110   32.0030   28.0770 N.am  127  GLN127     -0.0878
     67  N         19.6880   28.2340   29.9760 N.3   158  LEU158     -0.1231
     68  CA        21.1100   27.9070   29.9530 C.3   158  LEU158      0.1693
     69  C         21.8100   28.1120   31.3030 C.2   158  LEU158      0.2592
     70  O         22.8260   27.4790   31.5680 O.2   158  LEU158     -0.2718
     71  CB        21.8370   28.6420   28.8200 C.3   158  LEU158      0.0284
     72  CG        21.3270   28.4120   27.3910 C.3   158  LEU158      0.0019
     73  CD1       22.2770   29.0650   26.3850 C.3   158  LEU158      0.0001
     74  CD2       21.1250   26.9190   27.0690 C.3   158  LEU158      0.0001
     75  N         21.2390   28.9610   32.1540 N.am  159  ASP159     -0.1974
     76  CA        21.7720   29.1700   33.5030 C.3   159  ASP159      0.1709
     77  C         21.3960   28.0650   34.5010 C.2   159  ASP159      0.2293
     78  O         21.7720   28.1290   35.6820 O.2   159  ASP159     -0.2864
     79  CB        21.3740   30.5580   34.0270 C.3   159  ASP159      0.1436
     80  CG        19.8930   30.6770   34.3790 C.2   159  ASP159      0.3671
     81  OD1       19.1310   29.6810   34.2990 O.co2 159  ASP159     -0.2456
     82  OD2       19.4880   31.7960   34.7640 O.co2 159  ASP159     -0.2456
     83  N         24.8250   29.2780   19.7440 N.3   508  LEU508     -0.1245
     84  CA        25.4000   30.5120   20.2530 C.3   508  LEU508      0.1561
     85  C         26.7150   30.7570   19.5060 C.2   508  LEU508      0.2260
     86  O         27.1520   29.9200   18.7180 O.2   508  LEU508     -0.2867
     87  CB        25.6060   30.4310   21.7780 C.3   508  LEU508      0.0270
     88  CG        26.3390   29.2460   22.4250 C.3   508  LEU508      0.0019
     89  CD1       27.8250   29.3090   22.1780 C.3   508  LEU508      0.0001
     90  CD2       26.0900   29.2130   23.9200 C.3   508  LEU508      0.0001
     91  N         27.7140   22.1990   27.3080 N.3   527  ILE527     -0.1245
     92  CA        27.6570   22.8310   25.9860 C.3   527  ILE527      0.1561
     93  C         29.0590   23.2520   25.5520 C.2   527  ILE527      0.2260
     94  O         29.6150   24.2130   26.0990 O.2   527  ILE527     -0.2867
     95  CB        26.7360   24.0830   25.9740 C.3   527  ILE527      0.0252
     96  CG1       25.3750   23.7830   26.6260 C.3   527  ILE527      0.0019
     97  CG2       26.5650   24.6250   24.5470 C.3   527  ILE527      0.0019
     98  CD1       24.4840   25.0050   26.8010 C.3   527  ILE527      0.0001
@<TRIPOS>BOND
     1    86    85    2
     2    85    84    1
     3    83    84    1
     4    84    87    1
     5    87    88    1
     6     7     6    1
     7     1     2    1
     8    89    88    1
     9    14    13    1
    10     2     5    1
    11     2     3    1
    12    88    90    1
    13     5     6    1
    14     9     3   am
    15     9    10    1
    16     6     8    1
    17    12    11    2
    18    58    59    1
    19     3     4    2
    20    13    10    1
    21    13    15    1
    22    59    60    1
    23    59    62    1
    24    60    61    2
    25    10    11    1
    26    97    95    1
    27    62    63    1
    28    93    92    1
    29    93    94    2
    30    63    64    1
    31    47    46   ar
    32    47    45   ar
    33    95    92    1
    34    95    96    1
    35    92    91    1
    36    46    44   ar
    37    73    72    1
    38    45    43   ar
    39    96    98    1
    40    20    17    1
    41    64    65    2
    42    64    66   am
    43    74    72    1
    44    44    41   ar
    45    72    71    1
    46    43    41   ar
    47    43    42   ar
    48    41    39   ar
    49    16    17    1
    50    42    40   ar
    51    17    18    1
    52    39    40   ar
    53    39    38    1
    54    71    68    1
    55    48    49    1
    56    19    18    2
    57    18    21   am
    58    52    49    1
    59    52    53    1
    60    38    35    1
    61    24    23    2
    62    51    50    2
    63    49    50    1
    64    68    67    1
    65    68    69    1
    66    21    22    1
    67    33    31    1
    68    34    35    1
    69    34    29   am
    70    53    55   ar
    71    53    54   ar
    72    55    57   ar
    73    37    36    2
    74    23    22    1
    75    23    27   am
    76    32    31    1
    77    28    31    1
    78    28    27    1
    79    28    29    1
    80    35    36    1
    81    22    25    1
    82    29    30    2
    83    54    56   ar
    84    69    70    2
    85    69    75   am
    86    57    56   ar
    87    75    76    1
    88    25    26    1
    89    76    79    1
    90    76    77    1
    91    79    80    1
    92    81    80   ar
    93    80    82   ar
    94    77    78    2
