@<TRIPOS>MOLECULE
tmp/2z8rA03.pdb
 82 80 0 0 0
SMALL
GASTEIGER

@<TRIPOS>ATOM
      1  N         12.6450   22.8250    0.8760 N.3   332  ASP332     -0.1225
      2  CA        12.0430   23.2460   -0.3780 C.3   332  ASP332      0.1805
      3  C         12.8920   22.6690   -1.5010 C.2   332  ASP332      0.2598
      4  O         13.9830   23.1700   -1.8000 O.2   332  ASP332     -0.2718
      5  CB        11.9820   24.7720   -0.4520 C.3   332  ASP332      0.1424
      6  CG        11.4620   25.2700   -1.7830 C.2   332  ASP332      0.3668
      7  OD1       10.9160   24.4730   -2.5770 O.co2 332  ASP332     -0.2456
      8  OD2       11.5850   26.4840   -2.0320 O.co2 332  ASP332     -0.2456
      9  N         12.4140   21.5740   -2.0760 N.am  333  VAL333     -0.1966
     10  CA        13.1850   20.8410   -3.0800 C.3   333  VAL333      0.1727
     11  C         12.8120   21.2540   -4.5010 C.2   333  VAL333      0.2616
     12  O         13.5970   21.0700   -5.4210 O.2   333  VAL333     -0.2715
     13  CB        13.0390   19.3000   -2.9330 C.3   333  VAL333      0.0290
     14  CG1       13.4830   18.8590   -1.5600 C.3   333  VAL333      0.0023
     15  CG2       11.5970   18.8370   -3.2190 C.3   333  VAL333      0.0023
     16  N         11.6070   21.7950   -4.6800 N.am  334  ASP334     -0.1957
     17  CA        11.1160   22.0990   -6.0300 C.3   334  ASP334      0.1840
     18  C         11.1440   23.5930   -6.3860 C.2   334  ASP334      0.2622
     19  O         10.8120   23.9790   -7.5100 O.2   334  ASP334     -0.2715
     20  CB         9.7290   21.4820   -6.2620 C.3   334  ASP334      0.1450
     21  CG         8.6800   21.9740   -5.2690 C.2   334  ASP334      0.3671
     22  OD1        8.9020   23.0130   -4.6040 O.co2 334  ASP334     -0.2456
     23  OD2        7.6130   21.3240   -5.1580 O.co2 334  ASP334     -0.2456
     24  N         11.5490   24.4260   -5.4320 N.am  335  GLY335     -0.1954
     25  CA        11.7460   25.8560   -5.6630 C.3   335  GLY335      0.1869
     26  C         10.5190   26.7560   -5.5780 C.2   335  GLY335      0.2309
     27  O         10.6070   27.9400   -5.9270 O.2   335  GLY335     -0.2863
     28  N         22.4970   20.5660   -0.2340 N.3   370  ASP370     -0.1239
     29  CA        23.1300   20.7770   -1.5230 C.3   370  ASP370      0.1674
     30  C         24.4220   19.9710   -1.5160 C.2   370  ASP370      0.2266
     31  O         25.4890   20.4770   -1.1440 O.2   370  ASP370     -0.2867
     32  CB        23.3490   22.2520   -1.8530 C.3   370  ASP370      0.1410
     33  CG        23.6800   22.4500   -3.3090 C.2   370  ASP370      0.3668
     34  OD1       23.7000   21.4280   -4.0350 O.co2 370  ASP370     -0.2456
     35  OD2       23.9190   23.6010   -3.7330 O.co2 370  ASP370     -0.2456
     36  N         25.1880   20.7430   -9.6020 N.3   375  ARG375     -0.1231
     37  CA        23.9260   20.2630  -10.1560 C.3   375  ARG375      0.1679
     38  C         22.7890   21.0520   -9.5140 C.2   375  ARG375      0.2434
     39  O         22.6170   20.9810   -8.2990 O.2   375  ARG375     -0.2733
     40  CB        23.7470   18.7690   -9.8530 C.3   375  ARG375      0.0321
     41  CG        22.6310   18.1160  -10.6670 C.3   375  ARG375      0.0489
     42  CD        22.1160   16.8730   -9.9630 C.3   375  ARG375      0.2205
     43  NE        21.2090   17.2120   -8.8700 N.pl3 375  ARG375     -0.0865
     44  CZ        19.8950   17.3490   -9.0040 C.cat 375  ARG375      0.5346
     45  NH1       19.3110   17.1550  -10.1890 N.pl3 375  ARG375      0.1354
     46  NH2       19.1610   17.6700   -7.9490 N.pl3 375  ARG375      0.1354
     47  N         22.0360   21.8440  -10.3040 N.am  376  PRO376     -0.2718
     48  CA        20.9330   22.5960   -9.7110 C.3   376  PRO376      0.1535
     49  C         19.9470   21.7210   -8.9400 C.2   376  PRO376      0.2599
     50  O         19.5620   20.6420   -9.4080 O.2   376  PRO376     -0.2715
     51  CB        20.2430   23.2370  -10.9230 C.3   376  PRO376      0.0310
     52  CG        21.2900   23.3280  -11.9460 C.3   376  PRO376      0.0237
     53  CD        22.1980   22.1440  -11.7410 C.3   376  PRO376      0.0939
     54  N         19.5660   22.2140   -7.7640 N.am  377  GLY377     -0.1941
     55  CA        18.6450   21.5190   -6.8830 C.3   377  GLY377      0.2014
     56  C         19.3570   20.9060   -5.6930 C.2   377  GLY377      0.2638
     57  O         20.5810   20.9820   -5.5770 O.2   377  GLY377     -0.2714
     58  N         18.5750   20.3250   -4.7940 N.am  378  LEU378     -0.1977
     59  CA        19.1350   19.5830   -3.6710 C.3   378  LEU378      0.1596
     60  C         19.2790   18.1140   -4.0470 C.2   378  LEU378      0.2287
     61  O         18.7040   17.6340   -5.0320 O.2   378  LEU378     -0.2864
     62  CB        18.2480   19.7320   -2.4340 C.3   378  LEU378      0.0297
     63  CG        17.9910   21.1650   -1.9560 C.3   378  LEU378      0.0022
     64  CD1       17.0990   21.1500   -0.7280 C.3   378  LEU378      0.0001
     65  CD2       19.3190   21.8730   -1.6620 C.3   378  LEU378      0.0001
     66  N         20.6280   24.6970    3.6240 N.3   565  SER565     -0.1202
     67  CA        19.9190   24.7350    2.3290 C.3   565  SER565      0.2020
     68  C         20.8440   25.0190    1.1510 C.2   565  SER565      0.2618
     69  O         20.5010   24.7310    0.0030 O.2   565  SER565     -0.2717
     70  CB        18.8110   25.8000    2.3580 C.3   565  SER565      0.2103
     71  OG        19.3430   27.1150    2.4380 O.3   565  SER565     -0.2182
     72  N         21.9980   25.6120    1.4540 N.am  566  PHE566     -0.1975
     73  CA        23.0090   25.9690    0.4670 C.3   566  PHE566      0.1639
     74  C         24.2510   25.1150    0.6670 C.2   566  PHE566      0.2290
     75  O         24.4360   24.4870    1.7200 O.2   566  PHE566     -0.2864
     76  CB        23.3750   27.4530    0.6030 C.3   566  PHE566      0.0560
     77  CG        23.9130   27.8130    1.9630 C.ar  566  PHE566     -0.0200
     78  CD1       25.2850   27.7830    2.2250 C.ar  566  PHE566     -0.0042
     79  CD2       23.0470   28.1280    3.0000 C.ar  566  PHE566     -0.0042
     80  CE1       25.7730   28.1010    3.4900 C.ar  566  PHE566     -0.0003
     81  CE2       23.5330   28.4380    4.2710 C.ar  566  PHE566     -0.0003
     82  CZ        24.8910   28.4260    4.5100 C.ar  566  PHE566     -0.0000
@<TRIPOS>BOND
     1    52    53    1
     2    52    51    1
     3    53    47    1
     4    51    48    1
     5    41    42    1
     6    41    40    1
     7    47    48    1
     8    47    38   am
     9    45    44    1
    10    37    40    1
    11    37    36    1
    12    37    38    1
    13    42    43    1
    14    48    49    1
    15    38    39    2
    16    50    49    2
    17    44    43    2
    18    44    46    1
    19    49    54   am
    20    54    55    1
    21    19    18    2
    22    55    56    1
    23    18    17    1
    24    18    24   am
    25    20    17    1
    26    20    21    1
    27    17    16    1
    28    27    26    2
    29    56    57    2
    30    56    58   am
    31    25    26    1
    32    25    24    1
    33    12    11    2
    34    21    23   ar
    35    21    22   ar
    36    61    60    2
    37    58    59    1
    38    16    11   am
    39    11    10    1
    40    60    59    1
    41    34    33   ar
    42    35    33   ar
    43    59    62    1
    44    33    32    1
    45    15    13    1
    46    10    13    1
    47    10     9    1
    48    13    14    1
    49     7     6   ar
    50    62    63    1
    51     9     3   am
    52     8     6   ar
    53    63    65    1
    54    63    64    1
    55    32    29    1
    56     4     3    2
    57     6     5    1
    58    29    30    1
    59    29    28    1
    60    30    31    2
    61     3     2    1
    62     5     2    1
    63     2     1    1
    64    69    68    2
    65    73    76    1
    66    73    74    1
    67    73    72    1
    68    76    77    1
    69    74    75    2
    70    68    72   am
    71    68    67    1
    72    77    78   ar
    73    77    79   ar
    74    78    80   ar
    75    67    70    1
    76    67    66    1
    77    70    71    1
    78    79    81   ar
    79    80    82   ar
    80    81    82   ar
