@<TRIPOS>MOLECULE
tmp/2z8sB00.pdb
 132 123 0 0 0
SMALL
GASTEIGER

@<TRIPOS>ATOM
      1  N         37.1200   34.5900   71.6590 N.3   141  ASP141     -0.1239
      2  CA        38.5390   34.5590   71.3920 C.3   141  ASP141      0.1674
      3  C         39.2450   35.1980   72.5940 C.2   141  ASP141      0.2266
      4  O         38.6930   36.0720   73.2600 O.2   141  ASP141     -0.2867
      5  CB        38.8180   35.3560   70.1300 C.3   141  ASP141      0.1410
      6  CG        40.2690   35.3610   69.7590 C.2   141  ASP141      0.3668
      7  OD1       40.6620   34.4700   68.9830 O.co2 141  ASP141     -0.2456
      8  OD2       41.0150   36.2360   70.2500 O.co2 141  ASP141     -0.2456
      9  N         41.5010   37.3450   72.9540 N.3   143  SER143     -0.1202
     10  CA        41.6930   38.7990   72.8410 C.3   143  SER143      0.2020
     11  C         40.4400   39.5810   73.2420 C.2   143  SER143      0.2618
     12  O         40.5150   40.7610   73.5890 O.2   143  SER143     -0.2717
     13  CB        42.1110   39.1840   71.4210 C.3   143  SER143      0.2103
     14  OG        41.1210   38.7940   70.4880 O.3   143  SER143     -0.2182
     15  N         39.2970   38.9120   73.2050 N.am  144  GLN144     -0.1979
     16  CA        38.0360   39.5240   73.5790 C.3   144  GLN144      0.1601
     17  C         37.7470   39.3450   75.0750 C.2   144  GLN144      0.2287
     18  O         37.8680   38.2460   75.6170 O.2   144  GLN144     -0.2864
     19  CB        36.9150   38.9210   72.7360 C.3   144  GLN144      0.0394
     20  CG        37.0380   39.2270   71.2480 C.3   144  GLN144      0.0908
     21  CD        36.1950   38.3070   70.3570 C.2   144  GLN144      0.2608
     22  OE1       35.5690   37.3470   70.8280 O.2   144  GLN144     -0.2717
     23  NE2       36.1900   38.6010   69.0520 N.am  144  GLN144     -0.0878
     24  N         46.0950   29.9530   75.7990 N.3   267  ARG267     -0.1245
     25  CA        46.2150   29.4960   74.4220 C.3   267  ARG267      0.1563
     26  C         46.5210   28.0080   74.3910 C.2   267  ARG267      0.2260
     27  O         47.6760   27.5770   74.3650 O.2   267  ARG267     -0.2867
     28  CB        47.2770   30.2980   73.6690 C.3   267  ARG267      0.0307
     29  CG        46.8450   31.7040   73.3190 C.3   267  ARG267      0.0489
     30  CD        45.6350   31.7340   72.4100 C.3   267  ARG267      0.2205
     31  NE        45.2080   33.1060   72.1710 N.pl3 267  ARG267     -0.0865
     32  CZ        44.5540   33.5170   71.0880 C.cat 267  ARG267      0.5346
     33  NH1       44.2240   32.6590   70.1270 N.pl3 267  ARG267      0.1354
     34  NH2       44.2200   34.7900   70.9720 N.pl3 267  ARG267      0.1354
     35  N         52.2260   32.1260   71.1220 N.3   289  TYR289     -0.1241
     36  CA        52.7030   33.4340   70.6750 C.3   289  TYR289      0.1605
     37  C         54.0380   33.8160   71.3180 C.2   289  TYR289      0.2264
     38  O         54.8720   34.4680   70.6900 O.2   289  TYR289     -0.2867
     39  CB        51.6900   34.5050   71.0290 C.3   289  TYR289      0.0534
     40  CG        50.3860   34.3900   70.3070 C.ar  289  TYR289     -0.0201
     41  CD1       49.2070   34.1630   71.0040 C.ar  289  TYR289     -0.0009
     42  CD2       50.3200   34.5370   68.9260 C.ar  289  TYR289     -0.0009
     43  CE1       47.9890   34.0870   70.3370 C.ar  289  TYR289      0.0417
     44  CE2       49.1160   34.4580   68.2550 C.ar  289  TYR289      0.0417
     45  CZ        47.9590   34.2350   68.9660 C.ar  289  TYR289      0.1957
     46  OH        46.7750   34.1530   68.3070 O.3   289  TYR289     -0.2866
     47  N         47.3420   27.7850   65.7720 N.3   326  HIS326     -0.1241
     48  CA        46.1010   27.4670   66.4540 C.3   326  HIS326      0.1621
     49  C         45.7550   26.0270   66.1570 C.2   326  HIS326      0.2264
     50  O         44.6030   25.6400   66.1910 O.2   326  HIS326     -0.2867
     51  CB        44.9830   28.3500   65.9430 C.3   326  HIS326      0.0745
     52  CG        45.3040   29.8050   65.9670 C.ar  326  HIS326      0.0817
     53  ND1       45.4590   30.5130   67.1370 N.ar  326  HIS326     -0.2268
     54  CD2       45.4750   30.6920   64.9620 C.ar  326  HIS326      0.1154
     55  CE1       45.7190   31.7760   66.8520 C.ar  326  HIS326      0.1986
     56  NE2       45.7310   31.9140   65.5390 N.ar  326  HIS326     -0.2212
     57  N         47.9760   29.8240   61.0590 N.3   364  ASP364     -0.1239
     58  CA        46.5900   29.4580   61.2970 C.3   364  ASP364      0.1674
     59  C         46.1990   28.1220   60.6660 C.2   364  ASP364      0.2266
     60  O         45.2510   27.4600   61.1080 O.2   364  ASP364     -0.2867
     61  CB        45.6720   30.5790   60.7960 C.3   364  ASP364      0.1410
     62  CG        45.4880   31.6850   61.8230 C.2   364  ASP364      0.3668
     63  OD1       46.4190   31.9330   62.6120 O.co2 364  ASP364     -0.2456
     64  OD2       44.4110   32.3220   61.8470 O.co2 364  ASP364     -0.2456
     65  N         51.1290   34.1030   59.8030 N.3   385  GLU385     -0.1245
     66  CA        50.3920   35.2860   60.1880 C.3   385  GLU385      0.1567
     67  C         51.2510   36.5360   60.1300 C.2   385  GLU385      0.2260
     68  O         50.7590   37.6100   59.7920 O.2   385  GLU385     -0.2867
     69  CB        49.8490   35.1060   61.5950 C.3   385  GLU385      0.0388
     70  CG        48.7580   36.0590   61.9790 C.3   385  GLU385      0.1160
     71  CD        48.0670   35.5850   63.2230 C.2   385  GLU385      0.3649
     72  OE1       47.3210   34.5780   63.1550 O.co2 385  GLU385     -0.2457
     73  OE2       48.2880   36.2000   64.2820 O.co2 385  GLU385     -0.2457
     74  N         49.3590   38.7160   56.1230 N.3   412  ASP412     -0.1239
     75  CA        48.9760   37.6060   56.9590 C.3   412  ASP412      0.1674
     76  C         48.2140   36.6010   56.0900 C.2   412  ASP412      0.2266
     77  O         47.0860   36.8550   55.6810 O.2   412  ASP412     -0.2867
     78  CB        48.1220   38.1460   58.1190 C.3   412  ASP412      0.1410
     79  CG        47.2800   37.0760   58.7970 C.2   412  ASP412      0.3668
     80  OD1       47.5850   35.8710   58.6550 O.co2 412  ASP412     -0.2456
     81  OD2       46.3010   37.4480   59.4760 O.co2 412  ASP412     -0.2456
     82  N         46.1710   33.5960   56.0600 N.3   414  GLY414     -0.1210
     83  CA        45.3920   32.9720   57.1120 C.3   414  GLY414      0.1956
     84  C         44.9790   31.5630   56.7780 C.2   414  GLY414      0.2611
     85  O         44.5870   30.8010   57.6630 O.2   414  GLY414     -0.2717
     86  N         45.0680   31.2080   55.5040 N.am  415  ARG415     -0.1979
     87  CA        44.5370   29.9300   55.0470 C.3   415  ARG415      0.1597
     88  C         45.4800   29.2370   54.1100 C.2   415  ARG415      0.2287
     89  O         46.0130   29.8450   53.1810 O.2   415  ARG415     -0.2864
     90  CB        43.2110   30.1270   54.3320 C.3   415  ARG415      0.0334
     91  CG        42.1430   30.6940   55.1890 C.3   415  ARG415      0.0492
     92  CD        41.7930   29.7590   56.3120 C.3   415  ARG415      0.2205
     93  NE        40.6130   30.2550   56.9930 N.pl3 415  ARG415     -0.0865
     94  CZ        39.3690   29.9350   56.6570 C.cat 415  ARG415      0.5346
     95  NH1       39.1330   29.0850   55.6600 N.pl3 415  ARG415      0.1354
     96  NH2       38.3600   30.4550   57.3360 N.pl3 415  ARG415      0.1354
     97  N         32.2360   27.8860   64.0750 N.3   495  ASN495     -0.1240
     98  CA        33.3400   28.7990   64.3310 C.3   495  ASN495      0.1653
     99  C         33.4830   29.9180   63.3170 C.2   495  ASN495      0.2266
    100  O         34.5870   30.2490   62.8970 O.2   495  ASN495     -0.2867
    101  CB        34.6330   28.0030   64.4210 C.3   495  ASN495      0.1155
    102  CG        34.5100   26.8080   65.3210 C.2   495  ASN495      0.2627
    103  OD1       34.9520   25.7270   64.9690 O.2   495  ASN495     -0.2716
    104  ND2       33.9170   26.9930   66.4910 N.am  495  ASN495     -0.0877
    105  N         33.9200   32.3020   60.4120 N.3   497  THR497     -0.1203
    106  CA        34.5590   32.2720   59.0950 C.3   497  THR497      0.1994
    107  C         35.4700   31.0600   58.8970 C.2   497  THR497      0.2617
    108  O         35.7040   30.6460   57.7620 O.2   497  THR497     -0.2717
    109  CB        35.3150   33.5720   58.8010 C.3   497  THR497      0.1784
    110  OG1       36.1640   33.8710   59.9100 O.3   497  THR497     -0.2211
    111  CG2       34.3300   34.7470   58.5680 C.3   497  THR497      0.0376
    112  N         35.9630   30.4870   59.9970 N.am  498  LYS498     -0.1979
    113  CA        36.6500   29.1970   59.9500 C.3   498  LYS498      0.1596
    114  C         35.7800   28.2160   59.2000 C.2   498  LYS498      0.2287
    115  O         36.2620   27.5120   58.3280 O.2   498  LYS498     -0.2864
    116  CB        36.9700   28.6580   61.3490 C.3   498  LYS498      0.0298
    117  CG        38.0200   29.4530   62.1170 C.3   498  LYS498      0.0038
    118  CD        39.3160   29.5240   61.3380 C.3   498  LYS498      0.0206
    119  CE        40.1920   30.6430   61.8510 C.3   498  LYS498      0.1093
    120  NZ        41.3600   30.9010   60.9430 N.3   498  LYS498     -0.1314
    121  N         41.8760   26.1160   65.9450 N.3   558  TYR558     -0.1241
    122  CA        41.3800   26.1780   64.5830 C.3   558  TYR558      0.1605
    123  C         41.5300   24.8310   63.8990 C.2   558  TYR558      0.2264
    124  O         42.5980   24.4880   63.3940 O.2   558  TYR558     -0.2867
    125  CB        42.0060   27.3290   63.7750 C.3   558  TYR558      0.0534
    126  CG        41.7890   28.6880   64.4030 C.ar  558  TYR558     -0.0201
    127  CD1       40.7600   28.8870   65.3300 C.ar  558  TYR558     -0.0009
    128  CD2       42.5930   29.7740   64.0670 C.ar  558  TYR558     -0.0009
    129  CE1       40.5470   30.1100   65.9200 C.ar  558  TYR558      0.0417
    130  CE2       42.3910   31.0170   64.6590 C.ar  558  TYR558      0.0417
    131  CZ        41.3650   31.1770   65.5890 C.ar  558  TYR558      0.1957
    132  OH        41.1350   32.3930   66.2010 O.3   558  TYR558     -0.2866
@<TRIPOS>BOND
     1    89    88    2
     2    88    87    1
     3    90    87    1
     4    90    91    1
     5    87    86    1
     6    91    92    1
     7    86    84   am
     8    95    94    1
     9    77    76    2
    10    82    83    1
    11    76    75    1
    12    74    75    1
    13    92    93    1
    14    94    93    2
    15    94    96    1
    16    84    83    1
    17    84    85    2
    18    75    78    1
    19   108   107    2
    20    78    79    1
    21   115   114    2
    22   111   109    1
    23    80    79   ar
    24    79    81   ar
    25   109   106    1
    26   109   110    1
    27   107   106    1
    28   107   112   am
    29   106   105    1
    30   114   113    1
    31    68    67    2
    32    65    66    1
    33   113   112    1
    34   113   116    1
    35    67    66    1
    36    66    69    1
    37    59    60    2
    38    59    58    1
    39    61    58    1
    40    61    62    1
    41   120   119    1
    42    57    58    1
    43   118   119    1
    44   118   117    1
    45   116   117    1
    46    69    70    1
    47    62    64   ar
    48    62    63   ar
    49    70    71    1
    50   100    99    2
    51    72    71   ar
    52    71    73   ar
    53    99    98    1
    54   124   123    2
    55   125   126    1
    56   125   122    1
    57   123   122    1
    58   128   126   ar
    59   128   130   ar
    60    97    98    1
    61    98   101    1
    62   126   127   ar
    63   101   102    1
    64   122   121    1
    65   130   131   ar
    66    54    56   ar
    67    54    52   ar
    68   103   102    2
    69   102   104   am
    70   127   129   ar
    71    56    55   ar
    72   131   129   ar
    73   131   132    1
    74    47    48    1
    75    51    52    1
    76    51    48    1
    77    52    53   ar
    78    49    50    2
    79    49    48    1
    80    55    53   ar
    81    44    42   ar
    82    44    45   ar
    83    46    45    1
    84    42    40   ar
    85    45    43   ar
    86     7     6   ar
    87    23    21   am
    88     6     5    1
    89     6     8   ar
    90    33    32    1
    91     5     2    1
    92    40    41   ar
    93    40    39    1
    94    43    41   ar
    95    21    22    2
    96    21    20    1
    97    14    13    1
    98    36    39    1
    99    36    35    1
   100    36    37    1
   101    38    37    2
   102    34    32    1
   103    32    31    2
   104    20    19    1
   105     2     1    1
   106     2     3    1
   107    13    10    1
   108    31    30    1
   109    30    29    1
   110     3     4    2
   111    19    16    1
   112    10     9    1
   113    10    11    1
   114    15    11   am
   115    15    16    1
   116    11    12    2
   117    29    28    1
   118    16    17    1
   119    28    25    1
   120    27    26    2
   121    26    25    1
   122    25    24    1
   123    17    18    2
