@<TRIPOS>MOLECULE
tmp/2z92A00.pdb
 124 122 0 0 0
SMALL
GASTEIGER

@<TRIPOS>ATOM
      1  N         -9.4010    4.9640  -26.7470 N.3    32  ASN32      -0.1240
      2  CA        -9.3370    6.0480  -27.7150 C.3    32  ASN32       0.1653
      3  C         -9.3140    7.3050  -26.8040 C.2    32  ASN32       0.2266
      4  O        -10.0880    7.4160  -25.8400 O.2    32  ASN32      -0.2867
      5  CB       -10.5880    6.0660  -28.6080 C.3    32  ASN32       0.1155
      6  CG       -10.4580    5.1380  -29.8560 C.2    32  ASN32       0.2627
      7  OD1       -9.3570    4.8950  -30.3750 O.2    32  ASN32      -0.2716
      8  ND2      -11.5730    4.5860  -30.2440 N.am   32  ASN32      -0.0877
      9  N        -10.0240   11.1730  -26.4920 N.3    34  HIS34      -0.1241
     10  CA       -10.7110   12.2710  -27.1310 C.3    34  HIS34       0.1621
     11  C        -10.5980   13.6590  -26.5210 C.2    34  HIS34       0.2264
     12  O        -10.1140   13.8490  -25.4120 O.2    34  HIS34      -0.2867
     13  CB       -12.2120   11.9690  -27.2510 C.3    34  HIS34       0.0745
     14  CG       -12.5560   10.5150  -27.3940 C.ar   34  HIS34       0.0817
     15  ND1      -12.4630    9.6190  -26.3490 N.ar   34  HIS34      -0.2268
     16  CD2      -13.0480    9.8150  -28.4430 C.ar   34  HIS34       0.1154
     17  CE1      -12.8840    8.4310  -26.7490 C.ar   34  HIS34       0.1986
     18  NE2      -13.2450    8.5230  -28.0160 N.ar   34  HIS34      -0.2212
     19  N        -13.3800   16.7500  -26.1680 N.3    36  ILE36      -0.1245
     20  CA       -14.8070   17.0260  -26.2740 C.3    36  ILE36       0.1561
     21  C        -15.0710   18.3860  -25.6600 C.2    36  ILE36       0.2260
     22  O        -14.4890   18.7150  -24.6280 O.2    36  ILE36      -0.2867
     23  CB       -15.6060   15.9880  -25.4760 C.3    36  ILE36       0.0252
     24  CG1      -15.2320   14.5870  -25.9570 C.3    36  ILE36       0.0019
     25  CG2      -17.0990   16.2390  -25.6190 C.3    36  ILE36       0.0019
     26  CD1      -15.5410   13.5220  -24.9560 C.3    36  ILE36       0.0001
     27  N        -18.0790   16.3560  -29.9570 N.3    46  TRP46      -0.1241
     28  CA       -16.8560   15.5630  -29.9120 C.3    46  TRP46       0.1605
     29  C        -15.9800   16.1780  -30.9930 C.2    46  TRP46       0.2264
     30  O        -16.4440   16.4270  -32.1070 O.2    46  TRP46      -0.2867
     31  CB       -17.1880   14.1030  -30.2370 C.3    46  TRP46       0.0550
     32  CG       -16.0270   13.2260  -30.5940 C.ar   46  TRP46       0.0003
     33  CD1      -15.2540   12.4870  -29.7420 C.ar   46  TRP46       0.0946
     34  CD2      -15.5670   12.9260  -31.9150 C.ar   46  TRP46       0.0152
     35  NE1      -14.3500   11.7370  -30.4570 N.ar   46  TRP46      -0.2442
     36  CE2      -14.5220   11.9890  -31.7940 C.ar   46  TRP46       0.0810
     37  CE3      -15.9400   13.3590  -33.1940 C.ar   46  TRP46       0.0012
     38  CZ2      -13.8470   11.4750  -32.9060 C.ar   46  TRP46       0.0191
     39  CZ3      -15.2650   12.8480  -34.3040 C.ar   46  TRP46       0.0001
     40  CH2      -14.2330   11.9180  -34.1510 C.ar   46  TRP46       0.0015
     41  N        -10.3040   12.1790  -31.7900 N.3    49  TYR49      -0.1241
     42  CA        -9.5400   11.3880  -30.8400 C.3    49  TYR49       0.1605
     43  C         -8.2950   10.8130  -31.4520 C.2    49  TYR49       0.2264
     44  O         -8.1620   10.7400  -32.6720 O.2    49  TYR49      -0.2867
     45  CB       -10.3810   10.2220  -30.3020 C.3    49  TYR49       0.0534
     46  CG       -10.7260    9.1380  -31.3290 C.ar   49  TYR49      -0.0201
     47  CD1       -9.7500    8.2710  -31.8330 C.ar   49  TYR49      -0.0009
     48  CD2      -12.0360    8.9650  -31.7650 C.ar   49  TYR49      -0.0009
     49  CE1      -10.0800    7.2590  -32.7410 C.ar   49  TYR49       0.0417
     50  CE2      -12.3730    7.9630  -32.6650 C.ar   49  TYR49       0.0417
     51  CZ       -11.3940    7.1140  -33.1530 C.ar   49  TYR49       0.1957
     52  OH       -11.7360    6.1520  -34.0770 O.3    49  TYR49      -0.2866
     53  N         -8.7660   10.4140  -35.7880 N.3    57  ASN57      -0.1225
     54  CA       -10.1330   10.4740  -36.3270 C.3    57  ASN57       0.1785
     55  C        -10.7800   11.7630  -35.8230 C.2    57  ASN57       0.2597
     56  O        -11.1020   11.8950  -34.6420 O.2    57  ASN57      -0.2718
     57  CB       -10.9390    9.2580  -35.8550 C.3    57  ASN57       0.1169
     58  CG       -12.3510    9.2180  -36.4230 C.2    57  ASN57       0.2627
     59  OD1      -12.8250   10.1700  -37.0430 O.2    57  ASN57      -0.2716
     60  ND2      -13.0330    8.1020  -36.2000 N.am   57  ASN57      -0.0877
     61  N        -10.9770   12.7010  -36.7410 N.am   58  TYR58      -0.1976
     62  CA       -11.5300   14.0000  -36.4160 C.3    58  TYR58       0.1639
     63  C        -12.9850   14.1960  -36.8040 C.2    58  TYR58       0.2290
     64  O        -13.5630   13.4200  -37.5660 O.2    58  TYR58      -0.2864
     65  CB       -10.6930   15.0780  -37.1040 C.3    58  TYR58       0.0560
     66  CG        -9.2180   15.0000  -36.7810 C.ar   58  TYR58      -0.0198
     67  CD1       -8.2550   15.1800  -37.7730 C.ar   58  TYR58      -0.0009
     68  CD2       -8.7820   14.7700  -35.4790 C.ar   58  TYR58      -0.0009
     69  CE1       -6.8960   15.1350  -37.4730 C.ar   58  TYR58       0.0417
     70  CE2       -7.4260   14.7240  -35.1670 C.ar   58  TYR58       0.0417
     71  CZ        -6.4900   14.9070  -36.1690 C.ar   58  TYR58       0.1957
     72  OH        -5.1500   14.8580  -35.8660 O.3    58  TYR58      -0.2866
     73  N        -10.9060   13.0040  -22.7140 N.3    95  ALA95      -0.1231
     74  CA       -11.4800   11.7830  -22.1640 C.3    95  ALA95       0.1694
     75  C        -10.9850   10.5890  -22.9440 C.2    95  ALA95       0.2592
     76  O        -10.3150   10.7450  -23.9620 O.2    95  ALA95      -0.2718
     77  CB       -13.0000   11.8480  -22.2270 C.3    95  ALA95       0.0304
     78  N        -11.2980    9.3950  -22.4520 N.am   96  CYS96      -0.1956
     79  CA       -10.9060    8.1690  -23.1370 C.3    96  CYS96       0.1843
     80  C        -12.0410    7.1670  -23.0040 C.2    96  CYS96       0.2625
     81  O        -12.8180    7.2280  -22.0510 O.2    96  CYS96      -0.2714
     82  CB        -9.6150    7.5950  -22.5390 C.3    96  CYS96       0.0997
     83  SG        -9.7600    6.9360  -20.8720 S.3    96  CYS96      -0.0797
     84  N        -12.1580    6.2600  -23.9660 N.am   97  ASP97      -0.1971
     85  CA       -13.2150    5.2570  -23.9090 C.3    97  ASP97       0.1709
     86  C        -12.8570    4.0590  -24.7660 C.2    97  ASP97       0.2293
     87  O        -11.9780    4.1400  -25.6210 O.2    97  ASP97      -0.2864
     88  CB       -14.5450    5.8360  -24.4030 C.3    97  ASP97       0.1436
     89  CG       -14.8280    5.4850  -25.8540 C.2    97  ASP97       0.3671
     90  OD1      -14.0250    5.8600  -26.7330 O.co2  97  ASP97      -0.2456
     91  OD2      -15.8540    4.8230  -26.1160 O.co2  97  ASP97      -0.2456
     92  N        -15.7170    2.0590  -25.6930 N.3    99  PHE99      -0.1241
     93  CA       -17.1000    1.7110  -25.9980 C.3    99  PHE99       0.1605
     94  C        -17.8280    1.1730  -24.7720 C.2    99  PHE99       0.2264
     95  O        -18.9510    1.5850  -24.4880 O.2    99  PHE99      -0.2867
     96  CB       -17.1390    0.6990  -27.1530 C.3    99  PHE99       0.0534
     97  CG       -18.5130    0.4660  -27.7290 C.ar   99  PHE99      -0.0203
     98  CD1      -19.3290   -0.5470  -27.2380 C.ar   99  PHE99      -0.0042
     99  CD2      -18.9750    1.2420  -28.7900 C.ar   99  PHE99      -0.0042
    100  CE1      -20.5850   -0.7900  -27.7970 C.ar   99  PHE99      -0.0003
    101  CE2      -20.2270    1.0080  -29.3540 C.ar   99  PHE99      -0.0003
    102  CZ       -21.0310   -0.0100  -28.8580 C.ar   99  PHE99      -0.0000
    103  N        -15.9720    4.7740  -20.1620 N.3   102  ASP102     -0.1239
    104  CA       -15.3740    6.0690  -20.4720 C.3   102  ASP102      0.1674
    105  C        -14.8720    6.7620  -19.2090 C.2   102  ASP102      0.2266
    106  O        -15.3650    6.5090  -18.1150 O.2   102  ASP102     -0.2867
    107  CB       -16.3900    6.9740  -21.1830 C.3   102  ASP102      0.1410
    108  CG       -17.5920    7.3180  -20.3080 C.2   102  ASP102      0.3668
    109  OD1      -18.2690    8.3320  -20.5840 O.co2 102  ASP102     -0.2456
    110  OD2      -17.8680    6.5700  -19.3500 O.co2 102  ASP102     -0.2456
    111  N        -13.4230   10.7750  -17.8920 N.3   104  TRP104     -0.1241
    112  CA       -13.3220   12.1910  -18.2500 C.3   104  TRP104      0.1605
    113  C        -12.4700   13.0170  -17.3010 C.2   104  TRP104      0.2264
    114  O        -12.3010   12.6720  -16.1280 O.2   104  TRP104     -0.2867
    115  CB       -14.7120   12.8410  -18.2870 C.3   104  TRP104      0.0550
    116  CG       -15.6620   12.3110  -19.3150 C.ar  104  TRP104      0.0003
    117  CD1      -16.1560   11.0350  -19.4030 C.ar  104  TRP104      0.0946
    118  CD2      -16.2930   13.0590  -20.3670 C.ar  104  TRP104      0.0152
    119  NE1      -17.0580   10.9480  -20.4380 N.ar  104  TRP104     -0.2442
    120  CE2      -17.1640   12.1720  -21.0450 C.ar  104  TRP104      0.0810
    121  CE3      -16.2110   14.3950  -20.7990 C.ar  104  TRP104      0.0012
    122  CZ2      -17.9530   12.5770  -22.1350 C.ar  104  TRP104      0.0191
    123  CZ3      -16.9950   14.7990  -21.8860 C.ar  104  TRP104      0.0001
    124  CH2      -17.8570   13.8870  -22.5400 C.ar  104  TRP104      0.0015
@<TRIPOS>BOND
     1    67    69   ar
     2    67    66   ar
     3    64    63    2
     4    69    71   ar
     5    65    66    1
     6    65    62    1
     7    59    58    2
     8    63    62    1
     9    66    68   ar
    10    61    62    1
    11    61    55   am
    12    58    60   am
    13    58    57    1
    14    54    57    1
    15    54    55    1
    16    54    53    1
    17    71    72    1
    18    71    70   ar
    19    55    56    2
    20    68    70   ar
    21    39    40   ar
    22    39    37   ar
    23    40    38   ar
    24    52    51    1
    25    37    34   ar
    26    51    49   ar
    27    51    50   ar
    28    38    36   ar
    29    49    47   ar
    30    44    43    2
    31    50    48   ar
    32    30    29    2
    33    34    36   ar
    34    34    32   ar
    35    47    46   ar
    36    36    35   ar
    37    41    42    1
    38    48    46   ar
    39    43    42    1
    40    46    45    1
    41    29    28    1
    42    42    45    1
    43    32    31    1
    44    32    33   ar
    45    35    33   ar
    46     7     6    2
    47     8     6   am
    48    31    28    1
    49    27    28    1
    50     6     5    1
    51   101   102   ar
    52   101    99   ar
    53   102   100   ar
    54    99    97   ar
    55     5     2    1
    56    16    18   ar
    57    16    14   ar
    58    18    17   ar
    59   100    98   ar
    60    97    98   ar
    61    97    96    1
    62     2     3    1
    63     2     1    1
    64    14    13    1
    65    14    15   ar
    66    13    10    1
    67    96    93    1
    68    10    11    1
    69    10     9    1
    70     3     4    2
    71    17    15   ar
    72    90    89   ar
    73    11    12    2
    74    20    19    1
    75    20    21    1
    76    20    23    1
    77    91    89   ar
    78    93    92    1
    79    93    94    1
    80    24    23    1
    81    24    26    1
    82    89    88    1
    83    21    22    2
    84    87    86    2
    85    25    23    1
    86    94    95    2
    87    86    85    1
    88    88    85    1
    89    84    85    1
    90    84    80   am
    91    76    75    2
    92    79    80    1
    93    79    82    1
    94    79    78    1
    95    80    81    2
    96    75    78   am
    97    75    74    1
    98    73    74    1
    99   124   122   ar
   100   124   123   ar
   101    82    83    1
   102    77    74    1
   103   122   120   ar
   104   123   121   ar
   105   107   104    1
   106   107   108    1
   107   120   119   ar
   108   120   118   ar
   109   121   118   ar
   110   109   108   ar
   111   104   103    1
   112   104   105    1
   113   119   117   ar
   114   118   116   ar
   115   108   110   ar
   116   117   116   ar
   117   116   115    1
   118   105   106    2
   119   115   112    1
   120   112   111    1
   121   112   113    1
   122   113   114    2
