@<TRIPOS>MOLECULE
tmp/2z92B00.pdb
 94 93 0 0 0
SMALL
GASTEIGER

@<TRIPOS>ATOM
      1  N        -26.0600    6.8390  -27.9250 N.3    33  HIS33      -0.1241
      2  CA       -25.4010    6.7230  -26.6190 C.3    33  HIS33       0.1621
      3  C        -26.1230    7.7360  -25.7280 C.2    33  HIS33       0.2264
      4  O        -26.7070    8.6930  -26.2290 O.2    33  HIS33      -0.2867
      5  CB       -23.9040    7.0740  -26.7040 C.3    33  HIS33       0.0745
      6  CG       -23.0650    6.0250  -27.3540 C.ar   33  HIS33       0.0817
      7  ND1      -23.1990    4.6850  -27.0600 N.ar   33  HIS33      -0.2268
      8  CD2      -22.0530    6.1140  -28.2460 C.ar   33  HIS33       0.1154
      9  CE1      -22.3150    3.9940  -27.7540 C.ar   33  HIS33       0.1986
     10  NE2      -21.6030    4.8370  -28.4780 N.ar   33  HIS33      -0.2212
     11  N        -25.6880   10.1510  -22.1730 N.3    35  TYR35      -0.1241
     12  CA       -24.7860   10.7000  -21.1630 C.3    35  TYR35       0.1605
     13  C        -25.5680   11.4430  -20.0780 C.2    35  TYR35       0.2264
     14  O        -26.5620   12.1210  -20.3510 O.2    35  TYR35      -0.2867
     15  CB       -23.7790   11.6680  -21.8090 C.3    35  TYR35       0.0534
     16  CG       -22.8920   11.0280  -22.8570 C.ar   35  TYR35      -0.0201
     17  CD1      -23.3300   10.8830  -24.1730 C.ar   35  TYR35      -0.0009
     18  CD2      -21.6280   10.5320  -22.5240 C.ar   35  TYR35      -0.0009
     19  CE1      -22.5380   10.2620  -25.1360 C.ar   35  TYR35       0.0417
     20  CE2      -20.8200    9.8990  -23.4830 C.ar   35  TYR35       0.0417
     21  CZ       -21.2860    9.7700  -24.7870 C.ar   35  TYR35       0.1957
     22  OH       -20.5140    9.1470  -25.7400 O.3    35  TYR35      -0.2866
     23  N        -21.0010    8.7160  -19.6300 N.3    45  ARG45      -0.1245
     24  CA       -21.8170    7.7610  -20.3740 C.3    45  ARG45       0.1563
     25  C        -22.6950    6.9280  -19.4280 C.2    45  ARG45       0.2260
     26  O        -22.1870    6.2530  -18.5320 O.2    45  ARG45      -0.2867
     27  CB       -20.9190    6.8420  -21.2000 C.3    45  ARG45       0.0307
     28  CG       -21.6650    5.8800  -22.1090 C.3    45  ARG45       0.0489
     29  CD       -20.6770    5.0260  -22.8850 C.3    45  ARG45       0.2205
     30  NE       -20.4160    5.5910  -24.1980 N.pl3  45  ARG45      -0.0865
     31  CZ       -19.2570    5.5010  -24.8420 C.cat  45  ARG45       0.5346
     32  NH1      -18.2260    4.8710  -24.2970 N.pl3  45  ARG45       0.1354
     33  NH2      -19.1380    6.0440  -26.0450 N.pl3  45  ARG45       0.1354
     34  N        -26.5200   10.7200  -28.1500 N.3    88  GLN88      -0.1245
     35  CA       -25.5360   10.9700  -29.1870 C.3    88  GLN88       0.1566
     36  C        -25.5790    9.8310  -30.1850 C.2    88  GLN88       0.2260
     37  O        -25.8290    8.6780  -29.8190 O.2    88  GLN88      -0.2867
     38  CB       -24.1280   11.0590  -28.5640 C.3    88  GLN88       0.0367
     39  CG       -22.9740   11.1820  -29.5650 C.3    88  GLN88       0.0905
     40  CD       -21.6400   10.7190  -28.9780 C.2    88  GLN88       0.2608
     41  OE1      -21.5960    9.8100  -28.1430 O.2    88  GLN88      -0.2717
     42  NE2      -20.5440   11.3240  -29.4320 N.am   88  GLN88      -0.0878
     43  N        -23.4120    8.0530  -33.5020 N.3    90  TRP90      -0.1227
     44  CA       -22.0770    8.0220  -34.0680 C.3    90  TRP90       0.1737
     45  C        -22.0600    7.2620  -35.4000 C.2    90  TRP90       0.2596
     46  O        -21.0130    6.7740  -35.8380 O.2    90  TRP90      -0.2718
     47  CB       -21.0760    7.4340  -33.0500 C.3    90  TRP90       0.0564
     48  CG       -21.1950    5.9580  -32.7890 C.ar   90  TRP90       0.0003
     49  CD1      -20.4050    4.9700  -33.3060 C.ar   90  TRP90       0.0946
     50  CD2      -22.1970    5.2990  -32.0040 C.ar   90  TRP90       0.0152
     51  NE1      -20.8560    3.7370  -32.8990 N.ar   90  TRP90      -0.2442
     52  CE2      -21.9550    3.9080  -32.1000 C.ar   90  TRP90       0.0810
     53  CE3      -23.2790    5.7460  -31.2350 C.ar   90  TRP90       0.0012
     54  CZ2      -22.7560    2.9610  -31.4540 C.ar   90  TRP90       0.0191
     55  CZ3      -24.0750    4.8050  -30.5940 C.ar   90  TRP90       0.0001
     56  CH2      -23.8080    3.4280  -30.7090 C.ar   90  TRP90       0.0015
     57  N        -23.2250    7.1930  -36.0450 N.am   91  SER91      -0.1938
     58  CA       -23.3720    6.5280  -37.3470 C.3    91  SER91       0.2055
     59  C        -22.7210    7.3880  -38.4340 C.2    91  SER91       0.2644
     60  O        -22.1990    6.8710  -39.4190 O.2    91  SER91      -0.2714
     61  CB       -24.8540    6.3430  -37.7200 C.3    91  SER91       0.2130
     62  OG       -25.6030    5.7050  -36.7050 O.3    91  SER91      -0.2179
     63  N        -22.7820    8.7050  -38.2590 N.am   92  SER92      -0.1935
     64  CA       -22.1960    9.6450  -39.2160 C.3    92  SER92       0.2055
     65  C        -21.2510   10.6110  -38.5190 C.2    92  SER92       0.2643
     66  O        -21.4770   10.9610  -37.3640 O.2    92  SER92      -0.2714
     67  CB       -23.2940   10.4710  -39.8870 C.3    92  SER92       0.2130
     68  OG       -24.2250    9.6460  -40.5580 O.3    92  SER92      -0.2179
     69  N        -20.1940   11.0340  -39.2100 N.am   93  ASN93      -0.1971
     70  CA       -19.2570   12.0060  -38.6410 C.3    93  ASN93       0.1688
     71  C        -19.8320   13.3250  -39.1640 C.2    93  ASN93       0.2292
     72  O        -20.0540   13.4620  -40.3660 O.2    93  ASN93      -0.2864
     73  CB       -17.8370   11.7770  -39.1880 C.3    93  ASN93       0.1181
     74  CG       -16.7790   12.5770  -38.4350 C.2    93  ASN93       0.2629
     75  OD1      -16.9560   13.7660  -38.1710 O.2    93  ASN93      -0.2716
     76  ND2      -15.6690   11.9260  -38.0970 N.am   93  ASN93      -0.0877
     77  N        -20.4480   13.0630  -34.9140 N.3    95  PRO95      -0.2116
     78  CA       -21.2030   12.2840  -33.9270 C.3    95  PRO95       0.1372
     79  C        -22.0040   13.2330  -33.0180 C.2    95  PRO95       0.2244
     80  O        -21.7430   13.3550  -31.8190 O.2    95  PRO95      -0.2868
     81  CB       -20.1130   11.5240  -33.1610 C.3    95  PRO95       0.0268
     82  CG       -18.8480   11.7220  -33.9840 C.3    95  PRO95       0.0207
     83  CD       -19.0100   13.0530  -34.6060 C.3    95  PRO95       0.0892
     84  N        -24.6440   15.2990  -30.8120 N.3    97  PHE97      -0.1241
     85  CA       -25.2770   15.1750  -29.5150 C.3    97  PHE97       0.1605
     86  C        -26.6380   15.8550  -29.5770 C.2    97  PHE97       0.2264
     87  O        -26.8660   16.7100  -30.4300 O.2    97  PHE97      -0.2867
     88  CB       -24.4480   15.9130  -28.4640 C.3    97  PHE97       0.0534
     89  CG       -23.1710   15.2270  -28.0910 C.ar   97  PHE97      -0.0203
     90  CD1      -21.9960   15.4050  -28.8250 C.ar   97  PHE97      -0.0042
     91  CD2      -23.1470   14.3950  -26.9900 C.ar   97  PHE97      -0.0042
     92  CE1      -20.8160   14.7500  -28.4440 C.ar   97  PHE97      -0.0003
     93  CE2      -21.9830   13.7440  -26.6060 C.ar   97  PHE97      -0.0003
     94  CZ       -20.8180   13.9200  -27.3320 C.ar   97  PHE97      -0.0000
@<TRIPOS>BOND
     1    68    67    1
     2    72    71    2
     3    67    64    1
     4    60    59    2
     5    64    65    1
     6    64    63    1
     7    69    70    1
     8    69    65   am
     9    73    70    1
    10    73    74    1
    11    71    70    1
    12    65    66    2
    13    74    75    2
    14    74    76   am
    15    59    63   am
    16    59    58    1
    17    61    58    1
    18    61    62    1
    19    58    57    1
    20    57    45   am
    21    46    45    2
    22    45    44    1
    23    77    83    1
    24    77    78    1
    25    83    82    1
    26    44    43    1
    27    44    47    1
    28    82    81    1
    29    78    81    1
    30    78    79    1
    31    49    51   ar
    32    49    48   ar
    33    47    48    1
    34    79    80    2
    35    51    52   ar
    36    48    50   ar
    37    52    50   ar
    38    52    54   ar
    39    50    53   ar
    40    54    56   ar
    41    53    55   ar
    42    84    85    1
    43    56    55   ar
    44    87    86    2
    45    36    37    2
    46    36    35    1
    47    86    85    1
    48    39    40    1
    49    39    38    1
    50    85    88    1
    51    42    40   am
    52    35    38    1
    53    35    34    1
    54    40    41    2
    55    90    92   ar
    56    90    89   ar
    57    10     8   ar
    58    10     9   ar
    59    88    89    1
    60    92    94   ar
    61     8     6   ar
    62    89    91   ar
    63     1     2    1
    64     9     7   ar
    65     6     7   ar
    66     6     5    1
    67    94    93   ar
    68    91    93   ar
    69     5     2    1
    70     2     3    1
    71     4     3    2
    72    33    31    1
    73    22    21    1
    74    19    21   ar
    75    19    17   ar
    76    31    32    1
    77    31    30    2
    78    21    20   ar
    79    30    29    1
    80    17    16   ar
    81    20    18   ar
    82    29    28    1
    83    16    18   ar
    84    16    15    1
    85    11    12    1
    86    28    27    1
    87    15    12    1
    88    27    24    1
    89    12    13    1
    90    24    23    1
    91    24    25    1
    92    14    13    2
    93    25    26    2
