@<TRIPOS>MOLECULE
tmp/2z93C00.pdb
 124 122 0 0 0
SMALL
GASTEIGER

@<TRIPOS>ATOM
      1  N         49.4830  -15.5890   62.8670 N.3    32  ASN32      -0.1240
      2  CA        48.5480  -14.6220   63.4140 C.3    32  ASN32       0.1653
      3  C         48.1440  -13.8820   62.1460 C.2    32  ASN32       0.2266
      4  O         48.9730  -13.6730   61.2580 O.2    32  ASN32      -0.2867
      5  CB        49.2180  -13.6480   64.3930 C.3    32  ASN32       0.1155
      6  CG        49.3890  -14.2410   65.7900 C.2    32  ASN32       0.2627
      7  OD1       48.5190  -14.9660   66.2880 O.2    32  ASN32      -0.2716
      8  ND2       50.5060  -13.9160   66.4340 N.am   32  ASN32      -0.0877
      9  N         46.9960  -10.4800   60.6710 N.3    34  HIS34      -0.1241
     10  CA        46.9070   -9.0520   60.9610 C.3    34  HIS34       0.1621
     11  C         46.2070   -8.1340   59.9820 C.2    34  HIS34       0.2264
     12  O         46.0170   -8.4410   58.8050 O.2    34  HIS34      -0.2867
     13  CB        48.3180   -8.4650   61.1560 C.3    34  HIS34       0.0745
     14  CG        49.2270   -9.3070   61.9940 C.ar   34  HIS34       0.0817
     15  ND1       49.1720   -9.3230   63.3710 N.ar   34  HIS34      -0.2268
     16  CD2       50.2210  -10.1570   61.6460 C.ar   34  HIS34       0.1154
     17  CE1       50.0980  -10.1460   63.8340 C.ar   34  HIS34       0.1986
     18  NE2       50.7450  -10.6660   62.8070 N.ar   34  HIS34      -0.2212
     19  N         46.8060   -4.1720   59.0950 N.3    36  ILE36      -0.1245
     20  CA        47.6210   -3.0170   59.3560 C.3    36  ILE36       0.1561
     21  C         47.3400   -1.9790   58.2800 C.2    36  ILE36       0.2260
     22  O         46.9570   -2.3120   57.1630 O.2    36  ILE36      -0.2867
     23  CB        49.1450   -3.3940   59.4910 C.3    36  ILE36       0.0252
     24  CG1       50.0110   -2.3470   58.8070 C.3    36  ILE36       0.0019
     25  CG2       49.4120   -4.8350   59.0400 C.3    36  ILE36       0.0019
     26  CD1       51.2230   -2.0040   59.6270 C.3    36  ILE36       0.0001
     27  N         49.6210   -1.0890   63.3020 N.3    46  TRP46      -0.1241
     28  CA        49.0490   -2.4300   63.4290 C.3    46  TRP46       0.1605
     29  C         47.6940   -2.1840   64.0510 C.2    46  TRP46       0.2264
     30  O         47.5920   -1.5220   65.0830 O.2    46  TRP46      -0.2867
     31  CB        49.8850   -3.2830   64.3990 C.3    46  TRP46       0.0550
     32  CG        49.2670   -4.5850   64.8590 C.ar   46  TRP46       0.0003
     33  CD1       49.2510   -5.7810   64.1770 C.ar   46  TRP46       0.0946
     34  CD2       48.7030   -4.8620   66.1540 C.ar   46  TRP46       0.0152
     35  NE1       48.7340   -6.7760   64.9790 N.ar   46  TRP46      -0.2442
     36  CE2       48.3880   -6.2410   66.1910 C.ar   46  TRP46       0.0810
     37  CE3       48.4440   -4.0810   67.2900 C.ar   46  TRP46       0.0012
     38  CZ2       47.8340   -6.8490   67.3180 C.ar   46  TRP46       0.0191
     39  CZ3       47.8910   -4.6890   68.4100 C.ar   46  TRP46       0.0001
     40  CH2       47.5930   -6.0570   68.4180 C.ar   46  TRP46       0.0015
     41  N         44.9940   -8.4590   65.3140 N.3    49  TYR49      -0.1241
     42  CA        44.9990   -9.7290   64.6090 C.3    49  TYR49       0.1605
     43  C         44.1160  -10.7920   65.2160 C.2    49  TYR49       0.2264
     44  O         43.5180  -10.6010   66.2800 O.2    49  TYR49      -0.2867
     45  CB        46.4210  -10.2690   64.4810 C.3    49  TYR49       0.0534
     46  CG        47.0780  -10.6920   65.7770 C.ar   49  TYR49      -0.0201
     47  CD1       46.6690  -11.8450   66.4620 C.ar   49  TYR49      -0.0009
     48  CD2       48.1390   -9.9600   66.2960 C.ar   49  TYR49      -0.0009
     49  CE1       47.3130  -12.2560   67.6380 C.ar   49  TYR49       0.0417
     50  CE2       48.7880  -10.3530   67.4540 C.ar   49  TYR49       0.0417
     51  CZ        48.3750  -11.4990   68.1220 C.ar   49  TYR49       0.1957
     52  OH        49.0380  -11.8610   69.2670 O.3    49  TYR49      -0.2866
     53  N         43.5410  -10.1010   69.2800 N.3    57  ASN57      -0.1225
     54  CA        44.4140   -9.1250   69.9540 C.3    57  ASN57       0.1785
     55  C         44.3470   -7.8090   69.1770 C.2    57  ASN57       0.2597
     56  O         44.7740   -7.7300   68.0210 O.2    57  ASN57      -0.2718
     57  CB        45.8590   -9.6230   69.9750 C.3    57  ASN57       0.1169
     58  CG        46.7340   -8.8640   70.9690 C.2    57  ASN57       0.2627
     59  OD1       47.9580   -9.0240   70.9780 O.2    57  ASN57      -0.2716
     60  ND2       46.1150   -8.0510   71.8150 N.am   57  ASN57      -0.0877
     61  N         43.8390   -6.7740   69.8240 N.am   58  TYR58      -0.1976
     62  CA        43.6600   -5.4870   69.1700 C.3    58  TYR58       0.1639
     63  C         44.5710   -4.3550   69.6140 C.2    58  TYR58       0.2290
     64  O         45.1180   -4.3810   70.7120 O.2    58  TYR58      -0.2864
     65  CB        42.2060   -5.0630   69.3560 C.3    58  TYR58       0.0560
     66  CG        41.2120   -6.0800   68.8340 C.ar   58  TYR58      -0.0198
     67  CD1       40.1260   -6.4850   69.6070 C.ar   58  TYR58      -0.0009
     68  CD2       41.3350   -6.6000   67.5440 C.ar   58  TYR58      -0.0009
     69  CE1       39.1850   -7.3750   69.1050 C.ar   58  TYR58       0.0417
     70  CE2       40.4030   -7.4880   67.0320 C.ar   58  TYR58       0.0417
     71  CZ        39.3280   -7.8710   67.8110 C.ar   58  TYR58       0.1957
     72  OH        38.3820   -8.7210   67.2820 O.3    58  TYR58      -0.2866
     73  N         47.7050   -9.1580   56.6120 N.3    95  ALA95      -0.1231
     74  CA        48.9820   -9.8500   56.6330 C.3    95  ALA95       0.1694
     75  C         48.9930  -10.9840   57.6370 C.2    95  ALA95       0.2592
     76  O         48.0780  -11.1170   58.4530 O.2    95  ALA95      -0.2718
     77  CB        50.1010   -8.8570   56.9820 C.3    95  ALA95       0.0304
     78  N         50.0460  -11.7920   57.5780 N.am   96  CYS96      -0.1956
     79  CA        50.1990  -12.8860   58.5220 C.3    96  CYS96       0.1843
     80  C         51.6660  -13.0050   58.9330 C.2    96  CYS96       0.2625
     81  O         52.5580  -12.6430   58.1720 O.2    96  CYS96      -0.2714
     82  CB        49.6780  -14.2110   57.9210 C.3    96  CYS96       0.0997
     83  SG        50.6310  -14.9640   56.5820 S.3    96  CYS96      -0.0797
     84  N         51.9090  -13.4750   60.1550 N.am   97  ASP97      -0.1971
     85  CA        53.2750  -13.6690   60.6250 C.3    97  ASP97       0.1709
     86  C         53.3810  -14.6780   61.7650 C.2    97  ASP97       0.2293
     87  O         52.4010  -15.0300   62.4300 O.2    97  ASP97      -0.2864
     88  CB        53.9070  -12.3310   61.0460 C.3    97  ASP97       0.1436
     89  CG        53.9510  -12.1350   62.5460 C.2    97  ASP97       0.3671
     90  OD1       52.8940  -12.0190   63.1860 O.co2  97  ASP97      -0.2456
     91  OD2       55.0640  -12.0910   63.0970 O.co2  97  ASP97      -0.2456
     92  N         56.4420  -14.4550   63.7760 N.3    99  PHE99      -0.1241
     93  CA        57.6890  -13.9540   64.3580 C.3    99  PHE99       0.1605
     94  C         58.8870  -14.1840   63.4330 C.2    99  PHE99       0.2264
     95  O         59.6400  -13.2490   63.1560 O.2    99  PHE99      -0.2867
     96  CB        57.9110  -14.6220   65.7260 C.3    99  PHE99       0.0534
     97  CG        59.1380  -14.1490   66.4670 C.ar   99  PHE99      -0.0203
     98  CD1       60.2910  -14.9200   66.4850 C.ar   99  PHE99      -0.0042
     99  CD2       59.1210  -12.9460   67.1820 C.ar   99  PHE99      -0.0042
    100  CE1       61.4100  -14.5120   67.2040 C.ar   99  PHE99      -0.0003
    101  CE2       60.2340  -12.5210   67.9060 C.ar   99  PHE99      -0.0003
    102  CZ        61.3820  -13.3010   67.9220 C.ar   99  PHE99      -0.0000
    103  N         56.9490  -13.2930   57.5950 N.3   102  ASP102     -0.1239
    104  CA        55.7050  -12.5580   57.3770 C.3   102  ASP102      0.1674
    105  C         55.2650  -12.5010   55.9140 C.2   102  ASP102      0.2266
    106  O         56.0680  -12.6910   55.0000 O.2   102  ASP102     -0.2867
    107  CB        55.8070  -11.1250   57.9470 C.3   102  ASP102      0.1410
    108  CG        56.7930  -10.2460   57.1860 C.2   102  ASP102      0.3668
    109  OD1       56.6510   -9.0110   57.2630 O.co2 102  ASP102     -0.2456
    110  OD2       57.7120  -10.7650   56.5260 O.co2 102  ASP102     -0.2456
    111  N         52.3660  -10.2820   53.1830 N.3   104  TRP104     -0.1241
    112  CA        51.4490   -9.1470   53.0540 C.3   104  TRP104      0.1605
    113  C         50.7030   -9.1080   51.7350 C.2   104  TRP104      0.2264
    114  O         51.2700   -9.4080   50.6780 O.2   104  TRP104     -0.2867
    115  CB        52.2120   -7.8200   53.1360 C.3   104  TRP104      0.0550
    116  CG        52.9930   -7.5490   54.3710 C.ar  104  TRP104      0.0003
    117  CD1       54.0330   -8.2780   54.8740 C.ar  104  TRP104      0.0946
    118  CD2       52.8380   -6.4160   55.2350 C.ar  104  TRP104      0.0152
    119  NE1       54.5380   -7.6660   56.0040 N.ar  104  TRP104     -0.2442
    120  CE2       53.8210   -6.5210   56.2450 C.ar  104  TRP104      0.0810
    121  CE3       51.9620   -5.3200   55.2530 C.ar  104  TRP104      0.0012
    122  CZ2       53.9520   -5.5700   57.2620 C.ar  104  TRP104      0.0191
    123  CZ3       52.0930   -4.3760   56.2670 C.ar  104  TRP104      0.0001
    124  CH2       53.0820   -4.5070   57.2570 C.ar  104  TRP104      0.0015
@<TRIPOS>BOND
     1   114   113    2
     2   113   112    1
     3   112   115    1
     4   112   111    1
     5   115   116    1
     6   116   117   ar
     7   116   118   ar
     8   117   119   ar
     9   106   105    2
    10   118   121   ar
    11   118   120   ar
    12   121   123   ar
    13   105   104    1
    14   119   120   ar
    15   120   122   ar
    16   123   124   ar
    17   110   108   ar
    18    83    82    1
    19    73    74    1
    20    74    77    1
    21    74    75    1
    22    22    21    2
    23   108   109   ar
    24   108   107    1
    25   124   122   ar
    26   104   103    1
    27   104   107    1
    28    78    75   am
    29    78    79    1
    30    75    76    2
    31    82    79    1
    32    81    80    2
    33    21    20    1
    34    79    80    1
    35    12    11    2
    36    24    23    1
    37    24    26    1
    38    80    84   am
    39    25    23    1
    40    19    20    1
    41    20    23    1
    42    11    10    1
    43    84    85    1
    44    85    88    1
    45    85    86    1
    46     9    10    1
    47    10    13    1
    48    88    89    1
    49    13    14    1
    50     4     3    2
    51    16    14   ar
    52    16    18   ar
    53    86    87    2
    54    14    15   ar
    55     3     2    1
    56    89    91   ar
    57    89    90   ar
    58    18    17   ar
    59     1     2    1
    60    95    94    2
    61    27    28    1
    62    15    17   ar
    63     2     5    1
    64    28    29    1
    65    28    31    1
    66    94    93    1
    67    92    93    1
    68    29    30    2
    69    33    32   ar
    70    33    35   ar
    71    93    96    1
    72     5     6    1
    73    31    32    1
    74    45    42    1
    75    45    46    1
    76    42    43    1
    77    42    41    1
    78    32    34   ar
    79    35    36   ar
    80    43    44    2
    81    96    97    1
    82    46    48   ar
    83    46    47   ar
    84     6     7    2
    85     6     8   am
    86    34    36   ar
    87    34    37   ar
    88    36    38   ar
    89    48    50   ar
    90    47    49   ar
    91    97    98   ar
    92    97    99   ar
    93    98   100   ar
    94    70    68   ar
    95    70    71   ar
    96    99   101   ar
    97   100   102   ar
    98    72    71    1
    99    37    39   ar
   100    38    40   ar
   101    50    51   ar
   102    68    66   ar
   103    49    51   ar
   104    71    69   ar
   105   101   102   ar
   106    56    55    2
   107    51    52    1
   108    39    40   ar
   109    66    65    1
   110    66    67   ar
   111    69    67   ar
   112    62    65    1
   113    62    63    1
   114    62    61    1
   115    55    61   am
   116    55    54    1
   117    53    54    1
   118    63    64    2
   119    54    57    1
   120    57    58    1
   121    58    59    2
   122    58    60   am
