@<TRIPOS>MOLECULE
tmp/2z94A00.pdb
 81 76 0 0 0
SMALL
GASTEIGER

@<TRIPOS>ATOM
      1  N         21.0680  -12.2050   26.7530 N.3    25  THR25      -0.1203
      2  CA        19.9150  -11.3980   26.3390 C.3    25  THR25       0.1994
      3  C         18.6460  -12.2230   26.2720 C.2    25  THR25       0.2619
      4  O         18.6300  -13.3140   25.6980 O.2    25  THR25      -0.2717
      5  CB        20.1870  -10.7490   24.9540 C.3    25  THR25       0.1784
      6  OG1       21.3420   -9.9040   25.0580 O.3    25  THR25      -0.2211
      7  CG2       18.9820   -9.8990   24.4620 C.3    25  THR25       0.0376
      8  N         17.5900  -11.7040   26.8810 N.am   26  THR26      -0.1938
      9  CA        16.2970  -12.3590   26.8330 C.3    26  THR26       0.2028
     10  C         15.2740  -11.3170   26.3530 C.2    26  THR26       0.2642
     11  O         15.2770  -10.1840   26.8230 O.2    26  THR26      -0.2714
     12  CB        15.8170  -12.8610   28.2100 C.3    26  THR26       0.1808
     13  OG1       16.6260  -13.9750   28.6400 O.3    26  THR26      -0.2208
     14  CG2       14.3980  -13.3360   28.1220 C.3    26  THR26       0.0379
     15  N         14.4370  -11.7310   25.4100 N.am   27  LEU27      -0.1977
     16  CA        13.3500  -10.8970   24.8950 C.3    27  LEU27       0.1596
     17  C         12.1930  -11.8270   24.5220 C.2    27  LEU27       0.2287
     18  O         12.2570  -13.0420   24.7720 O.2    27  LEU27      -0.2864
     19  CB        13.8140  -10.0350   23.7250 C.3    27  LEU27       0.0297
     20  CG        14.6620  -10.5940   22.6010 C.3    27  LEU27       0.0022
     21  CD1       13.9440  -11.7260   21.8890 C.3    27  LEU27       0.0001
     22  CD2       14.9870   -9.4860   21.6470 C.3    27  LEU27       0.0001
     23  N         18.3000   -8.8410   17.0060 N.3    41  HIS41      -0.1241
     24  CA        19.2850   -8.3530   17.9660 C.3    41  HIS41       0.1621
     25  C         19.3830   -9.1380   19.2750 C.2    41  HIS41       0.2264
     26  O         20.1650   -8.7770   20.1460 O.2    41  HIS41      -0.2867
     27  CB        19.1640   -6.8360   18.2570 C.3    41  HIS41       0.0745
     28  CG        17.9460   -6.4240   19.0300 C.ar   41  HIS41       0.0817
     29  ND1       16.8310   -5.8850   18.4180 N.ar   41  HIS41      -0.2268
     30  CD2       17.7070   -6.3600   20.3650 C.ar   41  HIS41       0.1154
     31  CE1       15.9630   -5.5020   19.3440 C.ar   41  HIS41       0.1986
     32  NE2       16.4670   -5.7780   20.5320 N.ar   41  HIS41      -0.2212
     33  N         25.9150   -5.8940   24.3070 N.3    46  ALA46      -0.1245
     34  CA        25.8870   -4.4370   24.2750 C.3    46  ALA46       0.1562
     35  C         26.9070   -3.8760   23.2880 C.2    46  ALA46       0.2260
     36  O         26.6040   -2.9650   22.5120 O.2    46  ALA46      -0.2867
     37  CB        26.1580   -3.8700   25.6590 C.3    46  ALA46       0.0290
     38  N         26.0740   -4.1200   19.4800 N.3    49  MET49      -0.1245
     39  CA        25.1330   -3.1250   18.9660 C.3    49  MET49       0.1570
     40  C         25.7170   -1.8510   18.3580 C.2    49  MET49       0.2261
     41  O         25.0340   -1.1480   17.6120 O.2    49  MET49      -0.2867
     42  CB        24.1260   -2.7550   20.0630 C.3    49  MET49       0.0387
     43  CG        23.2120   -3.9000   20.4780 C.3    49  MET49       0.0595
     44  SD        22.3240   -4.6530   19.0850 S.3    49  MET49      -0.1393
     45  CE        21.0960   -3.4100   18.7140 C.3    49  MET49       0.0692
     46  N         12.4120   -1.7380   29.1220 N.3   142  ASN142     -0.1225
     47  CA        13.4390   -2.7120   28.7470 C.3   142  ASN142      0.1785
     48  C         12.8270   -4.1190   28.9010 C.2   142  ASN142      0.2597
     49  O         12.1530   -4.3950   29.8880 O.2   142  ASN142     -0.2718
     50  CB        14.6560   -2.5620   29.6780 C.3   142  ASN142      0.1169
     51  CG        15.8260   -3.4400   29.2680 C.2   142  ASN142      0.2627
     52  OD1       15.7210   -4.6700   29.2450 O.2   142  ASN142     -0.2716
     53  ND2       16.9660   -2.8060   28.9530 N.am  142  ASN142     -0.0877
     54  N         13.0720   -4.9910   27.9320 N.am  143  GLY143     -0.1957
     55  CA        12.5290   -6.3440   27.9840 C.3   143  GLY143      0.1869
     56  C         11.2730   -6.5070   27.1280 C.2   143  GLY143      0.2309
     57  O         10.7640   -7.6060   26.9940 O.2   143  GLY143     -0.2863
     58  N         11.0870   -5.8870   23.8670 N.3   145  CYS145     -0.1235
     59  CA        11.3940   -6.2390   22.4760 C.3   145  CYS145      0.1677
     60  C         10.7310   -7.5540   22.0840 C.2   145  CYS145      0.2270
     61  O         10.6970   -8.4940   22.8650 O.2   145  CYS145     -0.2867
     62  CB        12.8940   -6.2950   22.2750 C.3   145  CYS145      0.0956
     63  SG        13.6030   -4.6240   22.3390 S.3   145  CYS145     -0.0801
     64  N         11.0350   -3.4000   18.2900 N.3   164  HIS164     -0.1226
     65  CA        12.5090   -3.4910   18.2880 C.3   164  HIS164      0.1752
     66  C         13.2400   -2.3650   19.0000 C.2   164  HIS164      0.2595
     67  O         14.3510   -2.5880   19.4560 O.2   164  HIS164     -0.2718
     68  CB        13.1220   -3.5030   16.8690 C.3   164  HIS164      0.0759
     69  CG        12.7890   -4.7240   16.0610 C.ar  164  HIS164      0.0818
     70  ND1       13.7570   -5.5720   15.5590 N.ar  164  HIS164     -0.2268
     71  CD2       11.5970   -5.2330   15.6660 C.ar  164  HIS164      0.1154
     72  CE1       13.1730   -6.5580   14.8960 C.ar  164  HIS164      0.1986
     73  NE2       11.8620   -6.3780   14.9460 N.ar  164  HIS164     -0.2212
     74  N         12.6830   -1.1580   19.0580 N.am  165  MET165     -0.1979
     75  CA        13.4910   -0.1100   19.6790 C.3   165  MET165      0.1605
     76  C         12.7570    1.1440   20.0690 C.2   165  MET165      0.2287
     77  O         11.6150    1.3740   19.6370 O.2   165  MET165     -0.2864
     78  CB        14.6280    0.2850   18.7390 C.3   165  MET165      0.0413
     79  CG        14.1420    1.0250   17.5090 C.3   165  MET165      0.0598
     80  SD        15.4600    1.4390   16.2680 S.3   165  MET165     -0.1393
     81  CE        16.1800    2.8220   17.0100 C.3   165  MET165      0.0692
@<TRIPOS>BOND
     1    72    73   ar
     2    72    70   ar
     3    73    71   ar
     4    70    69   ar
     5    71    69   ar
     6    69    68    1
     7    80    81    1
     8    80    79    1
     9    68    65    1
    10    23    24    1
    11    79    78    1
    12    41    40    2
    13    24    27    1
    14    24    25    1
    15    27    28    1
    16    65    64    1
    17    65    66    1
    18    40    39    1
    19    29    28   ar
    20    29    31   ar
    21    45    44    1
    22    78    75    1
    23    39    38    1
    24    39    42    1
    25    66    74   am
    26    66    67    2
    27    28    30   ar
    28    74    75    1
    29    44    43    1
    30    25    26    2
    31    31    32   ar
    32    77    76    2
    33    75    76    1
    34    42    43    1
    35    30    32   ar
    36    22    20    1
    37    21    20    1
    38    60    59    1
    39    60    61    2
    40    62    63    1
    41    62    59    1
    42    59    58    1
    43    36    35    2
    44    20    19    1
    45    35    34    1
    46    19    16    1
    47    34    33    1
    48    34    37    1
    49     7     5    1
    50    17    18    2
    51    17    16    1
    52    16    15    1
    53     5     6    1
    54     5     2    1
    55    15    10   am
    56     4     3    2
    57     3     2    1
    58     3     8   am
    59     2     1    1
    60    10    11    2
    61    10     9    1
    62     9     8    1
    63     9    12    1
    64    57    56    2
    65    56    55    1
    66    54    55    1
    67    54    48   am
    68    14    12    1
    69    12    13    1
    70    47    48    1
    71    47    46    1
    72    47    50    1
    73    48    49    2
    74    53    51   am
    75    52    51    2
    76    51    50    1
