@<TRIPOS>MOLECULE
tmp/2z9dA00.pdb
 149 148 0 0 0
SMALL
GASTEIGER

@<TRIPOS>ATOM
      1  N          5.1910   76.2960   17.4100 N.3     9  SER9       -0.1202
      2  CA         4.6800   77.4900   18.0540 C.3     9  SER9        0.2020
      3  C          3.1710   77.6990   17.7480 C.2     9  SER9        0.2619
      4  O          2.7020   77.3570   16.6730 O.2     9  SER9       -0.2717
      5  CB         5.4860   78.7140   17.5670 C.3     9  SER9        0.2103
      6  OG         4.8660   79.8970   18.0130 O.3     9  SER9       -0.2182
      7  N          2.4340   78.2900   18.6800 N.am   10  ILE10      -0.1965
      8  CA         1.0440   78.6720   18.4340 C.3    10  ILE10       0.1727
      9  C          0.8350   80.1340   17.9840 C.2    10  ILE10       0.2616
     10  O         -0.3240   80.5610   17.7750 O.2    10  ILE10      -0.2715
     11  CB         0.1360   78.3690   19.6560 C.3    10  ILE10       0.0290
     12  CG1        0.5460   79.1530   20.8990 C.3    10  ILE10       0.0022
     13  CG2        0.1030   76.8530   19.9310 C.3    10  ILE10       0.0023
     14  CD1       -0.2440   78.7120   22.2300 C.3    10  ILE10       0.0001
     15  N          1.9400   80.8440   17.7560 N.am   11  LEU11      -0.1977
     16  CA         1.9500   82.2970   17.4670 C.3    11  LEU11       0.1596
     17  C          2.2240   82.6150   16.0040 C.2    11  LEU11       0.2287
     18  O          2.4720   83.7610   15.6690 O.2    11  LEU11      -0.2864
     19  CB         2.9520   83.0250   18.3680 C.3    11  LEU11       0.0297
     20  CG         2.7820   82.7670   19.8870 C.3    11  LEU11       0.0022
     21  CD1        3.9050   83.5130   20.6890 C.3    11  LEU11       0.0001
     22  CD2        1.4060   83.1500   20.3970 C.3    11  LEU11       0.0001
     23  N          4.2180   85.5390   14.1050 N.3    14  TYR14      -0.1227
     24  CA         4.8900   86.2760   15.1770 C.3    14  TYR14       0.1736
     25  C          5.8800   85.4160   15.9910 C.2    14  TYR14       0.2596
     26  O          6.5740   85.9240   16.8580 O.2    14  TYR14      -0.2718
     27  CB         3.8740   86.8780   16.1350 C.3    14  TYR14       0.0548
     28  CG         2.8860   87.8130   15.5030 C.ar   14  TYR14      -0.0200
     29  CD1        3.3030   89.0150   14.9580 C.ar   14  TYR14      -0.0009
     30  CD2        1.5170   87.5240   15.5150 C.ar   14  TYR14      -0.0009
     31  CE1        2.3830   89.9190   14.3920 C.ar   14  TYR14       0.0417
     32  CE2        0.5700   88.4190   14.9540 C.ar   14  TYR14       0.0417
     33  CZ         1.0210   89.6140   14.3790 C.ar   14  TYR14       0.1957
     34  OH         0.1300   90.5200   13.8300 O.3    14  TYR14      -0.2866
     35  N          5.9300   84.1180   15.7200 N.am   15  SER15      -0.1938
     36  CA         6.7310   83.2080   16.4900 C.3    15  SER15       0.2055
     37  C          8.2190   83.4450   16.3480 C.2    15  SER15       0.2643
     38  O          8.7310   83.4840   15.2460 O.2    15  SER15      -0.2714
     39  CB         6.4180   81.7730   16.0710 C.3    15  SER15       0.2130
     40  OG         7.4620   80.9020   16.4090 O.3    15  SER15      -0.2179
     41  N          8.9250   83.5330   17.4750 N.am   16  GLN16      -0.1963
     42  CA        10.3820   83.6800   17.4780 C.3    16  GLN16       0.1733
     43  C         11.0610   82.4340   16.9500 C.2    16  GLN16       0.2617
     44  O         12.0320   82.5360   16.1780 O.2    16  GLN16      -0.2715
     45  CB        10.9100   83.9700   18.8670 C.3    16  GLN16       0.0408
     46  CG        10.3340   85.2720   19.5230 C.3    16  GLN16       0.0908
     47  CD        10.9210   86.5840   18.9500 C.2    16  GLN16       0.2608
     48  OE1       12.0360   86.6020   18.4020 O.2    16  GLN16      -0.2717
     49  NE2       10.1700   87.6900   19.1100 N.am   16  GLN16      -0.0878
     50  N         10.5690   81.2550   17.3580 N.am   17  SER17      -0.1950
     51  CA        11.1270   79.9910   16.8990 C.3    17  SER17       0.1924
     52  C         10.8190   79.7060   15.4220 C.2    17  SER17       0.2314
     53  O         11.6420   79.1270   14.7450 O.2    17  SER17      -0.2863
     54  CB        10.7270   78.8090   17.8170 C.3    17  SER17       0.2116
     55  OG         9.3580   78.4420   17.7030 O.3    17  SER17      -0.2180
     56  N          9.4420   76.0580   21.3460 N.3    94  PRO94      -0.2102
     57  CA         9.0900   77.1250   22.3100 C.3    94  PRO94       0.1504
     58  C          8.6900   76.5480   23.6640 C.2    94  PRO94       0.2576
     59  O          8.0710   75.4800   23.7110 O.2    94  PRO94      -0.2718
     60  CB         7.8540   77.7960   21.6820 C.3    94  PRO94       0.0282
     61  CG         7.3270   76.7980   20.6500 C.3    94  PRO94       0.0208
     62  CD         8.5330   76.0340   20.1860 C.3    94  PRO94       0.0893
     63  N          9.0220   77.2790   24.7320 N.am   95  MET95      -0.1966
     64  CA         8.6320   76.9470   26.0440 C.3    95  MET95       0.1736
     65  C          7.3330   77.6430   26.4260 C.2    95  MET95       0.2616
     66  O          7.2620   78.8580   26.4780 O.2    95  MET95      -0.2715
     67  CB         9.7320   77.3450   27.0330 C.3    95  MET95       0.0427
     68  CG         9.4010   77.0200   28.4620 C.3    95  MET95       0.0599
     69  SD        10.5360   77.6500   29.7110 S.3    95  MET95      -0.1393
     70  CE        11.8810   76.4960   29.4010 C.3    95  MET95       0.0692
     71  N          6.3250   76.8400   26.7240 N.am   96  TYR96      -0.1960
     72  CA         5.0730   77.3010   27.2400 C.3    96  TYR96       0.1771
     73  C          4.7950   76.6260   28.5810 C.2    96  TYR96       0.2620
     74  O          4.7260   75.4010   28.6490 O.2    96  TYR96      -0.2715
     75  CB         3.9340   76.9450   26.2830 C.3    96  TYR96       0.0574
     76  CG         4.0280   77.5190   24.8790 C.ar   96  TYR96      -0.0198
     77  CD1        3.4850   76.8350   23.8080 C.ar   96  TYR96      -0.0009
     78  CD2        4.5920   78.7550   24.6360 C.ar   96  TYR96      -0.0009
     79  CE1        3.5390   77.3580   22.5350 C.ar   96  TYR96       0.0417
     80  CE2        4.6270   79.2940   23.3620 C.ar   96  TYR96       0.0417
     81  CZ         4.1300   78.5930   22.3220 C.ar   96  TYR96       0.1957
     82  OH         4.2020   79.1310   21.0550 O.3    96  TYR96      -0.2866
     83  N          4.6200   77.4350   29.6260 N.am   97  ASN97      -0.1958
     84  CA         4.3780   76.9660   30.9650 C.3    97  ASN97       0.1819
     85  C          5.3510   75.8840   31.4010 C.2    97  ASN97       0.2621
     86  O          4.9440   74.8480   31.9440 O.2    97  ASN97      -0.2715
     87  CB         2.9240   76.4970   31.0700 C.3    97  ASN97       0.1195
     88  CG         1.9400   77.6420   30.8340 C.2    97  ASN97       0.2630
     89  OD1        2.1120   78.7370   31.3650 O.2    97  ASN97      -0.2716
     90  ND2        0.9300   77.3920   30.0340 N.am   97  ASN97      -0.0877
     91  N          6.6540   76.1570   31.1630 N.am   98  PHE98      -0.1974
     92  CA         7.7530   75.2950   31.5670 C.3    98  PHE98       0.1639
     93  C          7.8490   73.9560   30.8250 C.2    98  PHE98       0.2290
     94  O          8.6900   73.1190   31.1680 O.2    98  PHE98      -0.2864
     95  CB         7.7660   75.0300   33.0680 C.3    98  PHE98       0.0560
     96  CG         7.8920   76.2570   33.8930 C.ar   98  PHE98      -0.0200
     97  CD1        6.7980   76.7450   34.6040 C.ar   98  PHE98      -0.0042
     98  CD2        9.0930   76.9460   33.9290 C.ar   98  PHE98      -0.0042
     99  CE1        6.9080   77.9020   35.3540 C.ar   98  PHE98      -0.0003
    100  CE2        9.2320   78.0860   34.6710 C.ar   98  PHE98      -0.0003
    101  CZ         8.1550   78.5780   35.3870 C.ar   98  PHE98      -0.0000
    102  N         12.8920   78.8030   22.1580 N.3   139  SER139     -0.1202
    103  CA        12.7140   80.1990   22.5650 C.3   139  SER139      0.2020
    104  C         11.9750   80.2660   23.8610 C.2   139  SER139      0.2619
    105  O         11.1220   79.4010   24.1190 O.2   139  SER139     -0.2717
    106  CB        11.9360   80.9320   21.4970 C.3   139  SER139      0.2103
    107  OG        10.9690   80.0490   21.0080 O.3   139  SER139     -0.2182
    108  N         12.3180   81.2620   24.6850 N.am  140  ARG140     -0.1965
    109  CA        11.7250   81.4240   26.0300 C.3   140  ARG140      0.1729
    110  C         11.5540   82.9100   26.3420 C.2   140  ARG140      0.2617
    111  O         12.3970   83.7380   25.9580 O.2   140  ARG140     -0.2715
    112  CB        12.6350   80.8190   27.1090 C.3   140  ARG140      0.0348
    113  CG        12.8610   79.3430   27.0080 C.3   140  ARG140      0.0492
    114  CD        14.1190   78.9530   26.2430 C.3   140  ARG140      0.2205
    115  NE        14.1490   77.4980   26.0720 N.pl3 140  ARG140     -0.0865
    116  CZ        14.8060   76.6520   26.8660 C.cat 140  ARG140      0.5346
    117  NH1       14.7390   75.3590   26.6290 N.pl3 140  ARG140      0.1354
    118  NH2       15.5340   77.0870   27.8810 N.pl3 140  ARG140      0.1354
    119  N         10.4820   83.2570   27.0480 N.am  141  GLY141     -0.1940
    120  CA        10.2930   84.6360   27.5200 C.3   141  GLY141      0.2014
    121  C         11.3830   85.0500   28.4890 C.2   141  GLY141      0.2639
    122  O         11.9380   86.1560   28.3750 O.2   141  GLY141     -0.2714
    123  N         11.6630   84.1830   29.4670 N.am  142  GLY142     -0.1954
    124  CA        12.6590   84.4640   30.4960 C.3   142  GLY142      0.1869
    125  C         14.0070   83.8580   30.2120 C.2   142  GLY142      0.2309
    126  O         14.2790   83.3940   29.0980 O.2   142  GLY142     -0.2863
    127  N         16.3600   80.8520   31.4530 N.3   144  HIS144     -0.1241
    128  CA        16.3070   79.5660   32.1480 C.3   144  HIS144      0.1621
    129  C         17.5020   78.6700   31.9010 C.2   144  HIS144      0.2264
    130  O         17.7050   77.7570   32.6530 O.2   144  HIS144     -0.2867
    131  CB        15.0660   78.7900   31.6930 C.3   144  HIS144      0.0745
    132  CG        13.7940   79.5710   31.8370 C.ar  144  HIS144      0.0817
    133  ND1       13.1110   79.6590   33.0310 N.ar  144  HIS144     -0.2268
    134  CD2       13.0890   80.3070   30.9450 C.ar  144  HIS144      0.1154
    135  CE1       12.0350   80.4140   32.8650 C.ar  144  HIS144      0.1986
    136  NE2       11.9900   80.8120   31.6060 N.ar  144  HIS144     -0.2212
    137  N         13.2950   86.8320   25.5180 N.3   176  ILE176     -0.1231
    138  CA        12.4500   87.5030   24.5310 C.3   176  ILE176      0.1692
    139  C         11.4760   88.4730   25.2050 C.2   176  ILE176      0.2591
    140  O         11.1920   89.5390   24.6720 O.2   176  ILE176     -0.2718
    141  CB        11.6160   86.4540   23.7230 C.3   176  ILE176      0.0266
    142  CG1       12.5070   85.4840   22.9470 C.3   176  ILE176      0.0019
    143  CG2       10.5320   87.1320   22.8580 C.3   176  ILE176      0.0020
    144  CD1       13.6050   86.1190   22.0860 C.3   176  ILE176      0.0001
    145  N         10.9890   88.1250   26.3860 N.am  177  ALA177     -0.1980
    146  CA         9.9540   88.9330   27.0660 C.3   177  ALA177      0.1597
    147  C         10.4650   90.1900   27.8080 C.2   177  ALA177      0.2287
    148  O          9.6740   91.0060   28.2910 O.2   177  ALA177     -0.2864
    149  CB         9.1450   88.0510   28.0180 C.3   177  ALA177      0.0319
@<TRIPOS>BOND
     1    34    33    1
     2    23    24    1
     3    33    31   ar
     4    33    32   ar
     5    31    29   ar
     6    53    52    2
     7    32    30   ar
     8    29    28   ar
     9    24    25    1
    10    24    27    1
    11    38    37    2
    12    52    51    1
    13    28    30   ar
    14    28    27    1
    15    18    17    2
    16    35    25   am
    17    35    36    1
    18    25    26    2
    19    17    16    1
    20    39    40    1
    21    39    36    1
    22    44    43    2
    23    37    36    1
    24    37    41   am
    25     4     3    2
    26    51    50    1
    27    51    54    1
    28    43    50   am
    29    43    42    1
    30     1     2    1
    31    16    15    1
    32    16    19    1
    33    41    42    1
    34    42    45    1
    35     5     6    1
    36     5     2    1
    37    55    54    1
    38     3     2    1
    39     3     7   am
    40    15     9   am
    41    10     9    2
    42     9     8    1
    43    19    20    1
    44    48    47    2
    45     8     7    1
    46     8    11    1
    47    45    46    1
    48    47    49   am
    49    47    46    1
    50    11    13    1
    51    11    12    1
    52    20    22    1
    53    20    21    1
    54    62    61    1
    55    62    56    1
    56    61    60    1
    57    12    14    1
    58   107   106    1
    59    82    81    1
    60    56    57    1
    61   106   103    1
    62    60    57    1
    63   144   142    1
    64   102   103    1
    65    57    58    1
    66    81    79   ar
    67    81    80   ar
    68    79    77   ar
    69   103   104    1
    70   143   141    1
    71   142   141    1
    72    80    78   ar
    73    58    59    2
    74    58    63   am
    75   141   138    1
    76    77    76   ar
    77   104   105    2
    78   104   108   am
    79   138   139    1
    80   138   137    1
    81    78    76   ar
    82   140   139    2
    83   108   109    1
    84    63    64    1
    85    76    75    1
    86   139   145   am
    87   111   110    2
    88   109   110    1
    89   109   112    1
    90    64    65    1
    91    64    67    1
    92   115   114    1
    93   115   116    2
    94   114   113    1
    95    75    72    1
    96   110   119   am
    97   145   146    1
    98    65    66    2
    99    65    71   am
   100   117   116    1
   101    71    72    1
   102   116   118    1
   103   113   112    1
   104    67    68    1
   105   119   120    1
   106   146   147    1
   107   146   149    1
   108    72    73    1
   109   120   121    1
   110   147   148    2
   111   122   121    2
   112    68    69    1
   113   121   123   am
   114    73    74    2
   115    73    83   am
   116   126   125    2
   117    70    69    1
   118   123   124    1
   119    83    84    1
   120    90    88   am
   121   125   124    1
   122    93    94    2
   123    93    92    1
   124    88    87    1
   125    88    89    2
   126   134   136   ar
   127   134   132   ar
   128    84    87    1
   129    84    85    1
   130    91    85   am
   131    91    92    1
   132    85    86    2
   133   127   128    1
   134    92    95    1
   135   136   135   ar
   136   131   132    1
   137   131   128    1
   138   132   133   ar
   139   129   128    1
   140   129   130    2
   141   135   133   ar
   142    95    96    1
   143    96    98   ar
   144    96    97   ar
   145    98   100   ar
   146    97    99   ar
   147   100   101   ar
   148    99   101   ar
