@<TRIPOS>MOLECULE
tmp/2z9hF01.pdb
 81 77 0 0 0
SMALL
GASTEIGER

@<TRIPOS>ATOM
      1  N          2.0610    6.9270    4.8220 N.3     1  MET1       -0.1230
      2  CA         3.5020    6.9470    5.1880 C.3     1  MET1        0.1702
      3  C          4.1140    8.3240    4.9000 C.2     1  MET1        0.2592
      4  O          3.5320    9.1290    4.1720 O.2     1  MET1       -0.2718
      5  CB         4.2400    5.8480    4.4260 C.3     1  MET1        0.0401
      6  CG         3.8000    4.4320    4.7980 C.3     1  MET1        0.0596
      7  SD         2.3390    3.8360    3.9110 S.3     1  MET1       -0.1393
      8  CE         3.0760    3.2580    2.3900 C.3     1  MET1        0.0692
      9  N          5.2870    8.5870    5.4750 N.am    2  LYS2       -0.1966
     10  CA         5.9350    9.8990    5.3690 C.3     2  LYS2        0.1728
     11  C          7.3470    9.8280    4.7890 C.2     2  LYS2        0.2616
     12  O          8.0640    8.8490    4.9860 O.2     2  LYS2       -0.2715
     13  CB         6.0220   10.5540    6.7500 C.3     2  LYS2        0.0311
     14  CG         4.6770   10.8020    7.4360 C.3     2  LYS2        0.0038
     15  CD         4.8870   11.4640    8.8010 C.3     2  LYS2        0.0206
     16  CE         3.7080   11.2680    9.7470 C.3     2  LYS2        0.1093
     17  NZ         4.1510   11.3350   11.1760 N.3     2  LYS2       -0.1314
     18  N          7.7380   10.8850    4.0830 N.am    3  LEU3       -0.1977
     19  CA         9.0980   11.0440    3.5730 C.3     3  LEU3        0.1596
     20  C          9.9450   11.8000    4.5840 C.2     3  LEU3        0.2287
     21  O          9.4350   12.6020    5.3610 O.2     3  LEU3       -0.2864
     22  CB         9.1050   11.8120    2.2510 C.3     3  LEU3        0.0297
     23  CG         8.4280   11.1450    1.0540 C.3     3  LEU3        0.0022
     24  CD1        8.2820   12.1540   -0.0750 C.3     3  LEU3        0.0001
     25  CD2        9.2140    9.9310    0.6080 C.3     3  LEU3        0.0001
     26  N         11.5840   15.4720    8.6280 N.3    29  MET29      -0.1230
     27  CA        10.4480   15.1880    7.7550 C.3    29  MET29       0.1702
     28  C         10.4580   16.1170    6.5430 C.2    29  MET29       0.2592
     29  O         10.9720   17.2330    6.6180 O.2    29  MET29      -0.2718
     30  CB         9.1340   15.3360    8.5260 C.3    29  MET29       0.0401
     31  CG         9.0590   14.4980    9.8000 C.3    29  MET29       0.0596
     32  SD         9.0810   12.7240    9.4810 S.3    29  MET29      -0.1393
     33  CE         9.9650   12.1600   10.9320 C.3    29  MET29       0.0692
     34  N          9.9040   15.6420    5.4290 N.am   30  ILE30      -0.1966
     35  CA         9.8750   16.4010    4.1840 C.3    30  ILE30       0.1727
     36  C          8.4420   16.8070    3.8650 C.2    30  ILE30       0.2616
     37  O          7.5470   15.9660    3.8440 O.2    30  ILE30      -0.2715
     38  CB        10.4360   15.5660    3.0200 C.3    30  ILE30       0.0290
     39  CG1       11.9440   15.3440    3.1900 C.3    30  ILE30       0.0022
     40  CG2       10.1500   16.2370    1.6900 C.3    30  ILE30       0.0023
     41  CD1       12.7850   16.6090    3.1260 C.3    30  ILE30       0.0001
     42  N          8.2290   18.0990    3.6170 N.am   31  ASP31      -0.1958
     43  CA         6.8880   18.6210    3.3450 C.3    31  ASP31       0.1825
     44  C          6.4600   18.3230    1.8950 C.2    31  ASP31       0.2464
     45  O          7.2910   17.9050    1.0780 O.2    31  ASP31      -0.2730
     46  CB         6.8180   20.1240    3.6970 C.3    31  ASP31       0.1450
     47  CG         7.6120   21.0160    2.7430 C.2    31  ASP31       0.3671
     48  OD1        7.9450   22.1540    3.1490 O.co2  31  ASP31      -0.2456
     49  OD2        7.8960   20.6030    1.6030 O.co2  31  ASP31      -0.2456
     50  N          5.1600   18.5180    1.5720 N.am   32  PRO32      -0.2727
     51  CA         4.6410   18.2380    0.2210 C.3    32  PRO32       0.1402
     52  C          5.5010   18.7580   -0.9300 C.2    32  PRO32       0.2269
     53  O          5.4980   18.1670   -2.0030 O.2    32  PRO32      -0.2865
     54  CB         3.2800   18.9350    0.2300 C.3    32  PRO32       0.0296
     55  CG         2.8350   18.8210    1.6460 C.3    32  PRO32       0.0237
     56  CD         4.0850   19.0050    2.4640 C.3    32  PRO32       0.0939
     57  N         11.1280   19.9770    6.7610 N.3    37  ASP37      -0.1239
     58  CA        10.0710   20.7640    7.4130 C.3    37  ASP37       0.1674
     59  C         10.3150   21.0410    8.8980 C.2    37  ASP37       0.2266
     60  O          9.3670   21.1450    9.6760 O.2    37  ASP37      -0.2867
     61  CB         8.7090   20.0860    7.2260 C.3    37  ASP37       0.1410
     62  CG         8.4690   18.9540    8.2070 C.2    37  ASP37       0.3668
     63  OD1        9.4380   18.5020    8.8550 O.co2  37  ASP37      -0.2456
     64  OD2        7.3040   18.5190    8.3320 O.co2  37  ASP37      -0.2456
     65  N         10.5330   19.8500   11.8710 N.3    39  GLN39      -0.1245
     66  CA        10.2690   18.7770   12.8410 C.3    39  GLN39       0.1566
     67  C         11.1410   17.5350   12.6140 C.2    39  GLN39       0.2260
     68  O         10.8920   16.7320   11.7240 O.2    39  GLN39      -0.2867
     69  CB         8.7770   18.4030   12.9060 C.3    39  GLN39       0.0367
     70  CG         8.1030   18.0930   11.5760 C.3    39  GLN39       0.0905
     71  CD         6.6870   17.5750   11.7480 C.2    39  GLN39       0.2608
     72  OE1        6.1340   17.5920   12.8500 O.2    39  GLN39      -0.2717
     73  NE2        6.0900   17.1100   10.6540 N.am   39  GLN39      -0.0878
     74  N         11.5370    6.4100    3.2700 N.3    56  LEU56      -0.1245
     75  CA        10.0980    6.3150    3.4700 C.3    56  LEU56       0.1561
     76  C          9.8600    5.7890    4.8800 C.2    56  LEU56       0.2260
     77  O         10.5120    4.8300    5.2900 O.2    56  LEU56      -0.2867
     78  CB         9.5090    5.3580    2.4410 C.3    56  LEU56       0.0270
     79  CG         7.9960    5.2020    2.3980 C.3    56  LEU56       0.0019
     80  CD1        7.3480    6.5280    2.0480 C.3    56  LEU56       0.0001
     81  CD2        7.6200    4.1210    1.3980 C.3    56  LEU56       0.0001
@<TRIPOS>BOND
     1    53    52    2
     2    52    51    1
     3    24    23    1
     4    51    54    1
     5    51    50    1
     6    54    55    1
     7    25    23    1
     8    23    22    1
     9    45    44    2
    10    81    79    1
    11    50    44   am
    12    50    56    1
    13    49    47   ar
    14    55    56    1
    15    40    38    1
    16    44    43    1
    17    80    79    1
    18    22    19    1
    19     8     7    1
    20    79    78    1
    21    78    75    1
    22    47    48   ar
    23    47    46    1
    24    38    39    1
    25    38    35    1
    26    41    39    1
    27    74    75    1
    28    43    42    1
    29    43    46    1
    30    75    76    1
    31    19    18    1
    32    19    20    1
    33    42    36   am
    34    37    36    2
    35    36    35    1
    36     7     6    1
    37    18    11   am
    38     4     3    2
    39    35    34    1
    40     5     6    1
    41     5     2    1
    42    20    21    2
    43    11    12    2
    44    11    10    1
    45     1     2    1
    46    76    77    2
    47     3     2    1
    48     3     9   am
    49    10     9    1
    50    10    13    1
    51    34    28   am
    52    28    29    2
    53    28    27    1
    54    13    14    1
    55    57    58    1
    56    61    58    1
    57    61    62    1
    58    58    59    1
    59    14    15    1
    60    27    30    1
    61    27    26    1
    62    62    64   ar
    63    62    63   ar
    64    30    31    1
    65    15    16    1
    66    59    60    2
    67    32    31    1
    68    32    33    1
    69    16    17    1
    70    73    71   am
    71    70    71    1
    72    70    69    1
    73    68    67    2
    74    71    72    2
    75    65    66    1
    76    67    66    1
    77    66    69    1
