@<TRIPOS>MOLECULE
tmp/2z9vB00.pdb
 115 108 0 0 0
SMALL
GASTEIGER

@<TRIPOS>ATOM
      1  N         38.0140   41.8620   22.9820 N.3    67  GLU67      -0.1231
      2  CA        37.3780   43.1410   22.7320 C.3    67  GLU67       0.1684
      3  C         37.4470   43.9960   24.0190 C.2    67  GLU67       0.2434
      4  O         37.7490   43.4810   25.1050 O.2    67  GLU67      -0.2733
      5  CB        35.9840   42.9260   22.1200 C.3    67  GLU67       0.0402
      6  CG        34.8520   42.7290   23.0840 C.3    67  GLU67       0.1161
      7  CD        34.0980   44.0180   23.2980 C.2    67  GLU67       0.3649
      8  OE1       33.9260   44.4100   24.4690 O.co2  67  GLU67      -0.2457
      9  OE2       33.6970   44.6430   22.2920 O.co2  67  GLU67      -0.2457
     10  N         37.2540   45.3200   23.8980 N.am   68  PRO68      -0.2718
     11  CA        37.5940   46.1780   25.0460 C.3    68  PRO68       0.1535
     12  C         36.9910   45.9300   26.4370 C.2    68  PRO68       0.2598
     13  O         37.5580   46.4450   27.4090 O.2    68  PRO68      -0.2715
     14  CB        37.2810   47.6030   24.5300 C.3    68  PRO68       0.0310
     15  CG        37.4190   47.5080   23.0630 C.3    68  PRO68       0.0237
     16  CD        36.8760   46.1210   22.7210 C.3    68  PRO68       0.0939
     17  N         35.9100   45.1500   26.5820 N.am   69  VAL69      -0.1978
     18  CA        35.5210   44.7190   27.9400 C.3    69  VAL69       0.1596
     19  C         36.6930   44.0560   28.6650 C.2    69  VAL69       0.2287
     20  O         36.8110   44.1820   29.8850 O.2    69  VAL69      -0.2864
     21  CB        34.3090   43.7490   27.9960 C.3    69  VAL69       0.0276
     22  CG1       33.0130   44.4570   27.6490 C.3    69  VAL69       0.0022
     23  CG2       34.5430   42.5280   27.1120 C.3    69  VAL69       0.0022
     24  N         38.8130   46.8330   30.1180 N.3    72  LEU72      -0.1245
     25  CA        38.1910   47.4750   31.2710 C.3    72  LEU72       0.1561
     26  C         38.2490   46.5860   32.5140 C.2    72  LEU72       0.2260
     27  O         38.5940   47.0490   33.6100 O.2    72  LEU72      -0.2867
     28  CB        36.7510   47.8860   30.9260 C.3    72  LEU72       0.0270
     29  CG        36.7000   49.0210   29.8920 C.3    72  LEU72       0.0019
     30  CD1       35.3020   49.1360   29.3190 C.3    72  LEU72       0.0001
     31  CD2       37.1900   50.3610   30.4890 C.3    72  LEU72       0.0001
     32  N         27.7180   52.1400   30.6930 N.3    94  TYR94      -0.1241
     33  CA        29.1120   51.7060   30.8550 C.3    94  TYR94       0.1605
     34  C         29.7700   52.3490   32.0690 C.2    94  TYR94       0.2264
     35  O         30.4680   51.6730   32.8440 O.2    94  TYR94      -0.2867
     36  CB        29.8940   51.8810   29.5540 C.3    94  TYR94       0.0534
     37  CG        29.5270   50.7680   28.5990 C.ar   94  TYR94      -0.0201
     38  CD1       30.0930   49.5020   28.7530 C.ar   94  TYR94      -0.0009
     39  CD2       28.5730   50.9560   27.5980 C.ar   94  TYR94      -0.0009
     40  CE1       29.7470   48.4490   27.9140 C.ar   94  TYR94       0.0417
     41  CE2       28.2020   49.8970   26.7480 C.ar   94  TYR94       0.0417
     42  CZ        28.7960   48.6510   26.9220 C.ar   94  TYR94       0.1957
     43  OH        28.4560   47.5890   26.1070 O.3    94  TYR94      -0.2866
     44  N         33.7060   57.3340   31.7410 N.3   141  CYS141     -0.1235
     45  CA        33.4320   56.9060   30.3810 C.3   141  CYS141      0.1677
     46  C         33.3300   58.1630   29.5000 C.2   141  CYS141      0.2270
     47  O         32.6190   59.1120   29.8450 O.2   141  CYS141     -0.2867
     48  CB        32.1420   56.0970   30.3440 C.3   141  CYS141      0.0956
     49  SG        31.7600   55.4570   28.7360 S.3   141  CYS141     -0.0801
     50  N         32.4320   58.4170   25.9330 N.3   143  HIS143     -0.1241
     51  CA        31.1670   58.3350   25.2120 C.3   143  HIS143      0.1621
     52  C         30.4700   57.1220   25.7720 C.2   143  HIS143      0.2264
     53  O         30.8590   55.9830   25.4880 O.2   143  HIS143     -0.2867
     54  CB        31.4310   58.2030   23.7060 C.3   143  HIS143      0.0745
     55  CG        30.2140   57.9220   22.8670 C.ar  143  HIS143      0.0817
     56  ND1       28.9300   58.2960   23.2090 N.ar  143  HIS143     -0.2268
     57  CD2       30.1170   57.3450   21.6490 C.ar  143  HIS143      0.1154
     58  CE1       28.0910   57.9250   22.2510 C.ar  143  HIS143      0.1986
     59  NE2       28.7870   57.3540   21.2920 N.ar  143  HIS143     -0.2212
     60  N         28.0310   54.9330   25.1970 N.3   145  THR145     -0.1218
     61  CA        27.3840   54.6670   23.9150 C.3   145  THR145      0.1862
     62  C         25.8610   54.4970   23.9780 C.2   145  THR145      0.2287
     63  O         25.1620   55.0540   23.1310 O.2   145  THR145     -0.2866
     64  CB        28.0750   53.4860   23.1610 C.3   145  THR145      0.1770
     65  OG1       29.4690   53.4540   23.5110 O.3   145  THR145     -0.2211
     66  CG2       27.9360   53.6710   21.6350 C.3   145  THR145      0.0375
     67  N         37.3840   55.1730   29.7350 N.3   170  ASP170     -0.1239
     68  CA        36.7910   54.3330   28.6970 C.3   170  ASP170      0.1674
     69  C         36.5130   55.2350   27.4820 C.2   170  ASP170      0.2266
     70  O         35.6010   56.0830   27.5130 O.2   170  ASP170     -0.2867
     71  CB        35.4940   53.6970   29.2310 C.3   170  ASP170      0.1410
     72  CG        34.6640   52.9930   28.1500 C.2   170  ASP170      0.3668
     73  OD1       33.7160   52.2680   28.5300 O.co2 170  ASP170     -0.2456
     74  OD2       34.9180   53.1700   26.9400 O.co2 170  ASP170     -0.2456
     75  N         36.1670   53.7500   24.2990 N.3   172  VAL172     -0.1231
     76  CA        35.8860   52.7160   23.2970 C.3   172  VAL172      0.1692
     77  C         35.1480   53.2560   22.0650 C.2   172  VAL172      0.2592
     78  O         35.4990   52.9420   20.9120 O.2   172  VAL172     -0.2718
     79  CB        35.1470   51.5330   23.9660 C.3   172  VAL172      0.0266
     80  CG1       34.6250   50.5120   22.9130 C.3   172  VAL172      0.0020
     81  CG2       36.0780   50.8520   24.9310 C.3   172  VAL172      0.0020
     82  N         34.1380   54.0920   22.3030 N.am  173  SER173     -0.1952
     83  CA        33.2890   54.5290   21.2100 C.3   173  SER173      0.1924
     84  C         33.4950   56.0020   20.8620 C.2   173  SER173      0.2314
     85  O         32.6700   56.5860   20.1590 O.2   173  SER173     -0.2863
     86  CB        31.8260   54.2710   21.5730 C.3   173  SER173      0.2116
     87  OG        31.5500   54.9260   22.8010 O.3   173  SER173     -0.2180
     88  N         36.8440   48.7240   17.0790 N.3   195  ASN195     -0.1225
     89  CA        35.5620   48.1760   16.6540 C.3   195  ASN195      0.1785
     90  C         34.3890   49.1620   16.6900 C.2   195  ASN195      0.2597
     91  O         33.2360   48.7560   16.5290 O.2   195  ASN195     -0.2718
     92  CB        35.2320   46.9420   17.5080 C.3   195  ASN195      0.1169
     93  CG        35.1230   47.2760   18.9860 C.2   195  ASN195      0.2627
     94  OD1       34.0210   47.3180   19.5490 O.2   195  ASN195     -0.2716
     95  ND2       36.2570   47.5470   19.6180 N.am  195  ASN195     -0.0877
     96  N         34.6710   50.4380   16.9270 N.am  196  LYS196     -0.1980
     97  CA        33.6380   51.4740   16.8190 C.3   196  LYS196      0.1596
     98  C         34.0630   52.3950   15.6890 C.2   196  LYS196      0.2287
     99  O         33.9400   52.0090   14.5330 O.2   196  LYS196     -0.2864
    100  CB        33.3980   52.1980   18.1640 C.3   196  LYS196      0.0298
    101  CG        32.8540   51.2380   19.2840 C.3   196  LYS196      0.0038
    102  CD        31.4500   50.6860   18.9640 C.3   196  LYS196      0.0206
    103  CE        30.7820   50.1160   20.2160 C.3   196  LYS196      0.1093
    104  NZ        29.5350   49.3700   19.8360 N.3   196  LYS196     -0.1314
    105  N         20.5760   50.1130   25.7750 N.3   335  ARG335     -0.1245
    106  CA        21.1230   48.9760   26.5150 C.3   335  ARG335      0.1563
    107  C         20.8090   49.2440   27.9690 C.2   335  ARG335      0.2260
    108  O         20.7560   50.4010   28.3910 O.2   335  ARG335     -0.2867
    109  CB        22.6380   48.8680   26.2600 C.3   335  ARG335      0.0307
    110  CG        23.3370   47.6220   26.8380 C.3   335  ARG335      0.0489
    111  CD        24.8680   47.6440   26.5910 C.3   335  ARG335      0.2205
    112  NE        25.2890   47.3460   25.2130 N.pl3 335  ARG335     -0.0865
    113  CZ        25.6200   46.1310   24.7630 C.cat 335  ARG335      0.5346
    114  NH1       25.5450   45.0700   25.5660 N.pl3 335  ARG335      0.1354
    115  NH2       26.0110   45.9710   23.5030 N.pl3 335  ARG335      0.1354
@<TRIPOS>BOND
     1    99    98    2
     2    98    97    1
     3    91    90    2
     4    89    90    1
     5    89    88    1
     6    89    92    1
     7    90    96   am
     8    97    96    1
     9    97   100    1
    10    92    93    1
    11   100   101    1
    12   102   101    1
    13   102   103    1
    14    93    94    2
    15    93    95   am
    16   104   103    1
    17    85    84    2
    18    84    83    1
    19    78    77    2
    20    83    86    1
    21    83    82    1
    22    59    57   ar
    23    59    58   ar
    24    86    87    1
    25    66    64    1
    26    57    55   ar
    27    77    82   am
    28    77    76    1
    29     5     2    1
    30     5     6    1
    31    58    56   ar
    32     9     7   ar
    33    16    15    1
    34    16    10    1
    35     2     1    1
    36     2     3    1
    37    55    56   ar
    38    55    54    1
    39    80    79    1
    40    15    14    1
    41     6     7    1
    42    63    62    2
    43    64    65    1
    44    64    61    1
    45    76    79    1
    46    76    75    1
    47     7     8   ar
    48   115   113    1
    49    54    51    1
    50    10     3   am
    51    10    11    1
    52    61    62    1
    53    61    60    1
    54    79    81    1
    55     3     4    2
    56    14    11    1
    57   113   112    2
    58   113   114    1
    59    11    12    1
    60    51    52    1
    61    51    50    1
    62   112   111    1
    63    53    52    2
    64   105   106    1
    65    43    42    1
    66   109   106    1
    67   109   110    1
    68    12    17   am
    69    12    13    2
    70   106   107    1
    71    17    18    1
    72   111   110    1
    73    41    42   ar
    74    41    39   ar
    75    42    40   ar
    76    74    72   ar
    77    23    21    1
    78    69    70    2
    79    69    68    1
    80    39    37   ar
    81    22    21    1
    82    40    38   ar
    83    18    21    1
    84    18    19    1
    85   107   108    2
    86    72    73   ar
    87    72    71    1
    88    37    38   ar
    89    37    36    1
    90    19    20    2
    91    68    71    1
    92    68    67    1
    93    49    48    1
    94    30    29    1
    95    46    47    2
    96    46    45    1
    97    36    33    1
    98    29    31    1
    99    29    28    1
   100    24    25    1
   101    48    45    1
   102    45    44    1
   103    32    33    1
   104    33    34    1
   105    28    25    1
   106    25    26    1
   107    34    35    2
   108    26    27    2
