@<TRIPOS>MOLECULE
tmp/2z9xA00.pdb
 147 139 0 0 0
SMALL
GASTEIGER

@<TRIPOS>ATOM
      1  N         53.3260   24.8820   13.9560 N.3    15  ALA15      -0.1231
      2  CA        52.4510   24.0570   14.7870 C.3    15  ALA15       0.1694
      3  C         51.5030   24.8940   15.6550 C.2    15  ALA15       0.2593
      4  O         50.9580   24.3950   16.6280 O.2    15  ALA15      -0.2718
      5  CB        53.3070   23.1030   15.6690 C.3    15  ALA15       0.0304
      6  N         51.3170   26.1690   15.3090 N.am   16  GLY16      -0.1943
      7  CA        50.3400   27.0170   16.0000 C.3    16  GLY16       0.1998
      8  C         50.9680   28.3630   16.3560 C.2    16  GLY16       0.2480
      9  O         51.9080   28.4160   17.1440 O.2    16  GLY16      -0.2729
     10  N         50.4740   29.4640   15.7570 N.am   17  PRO17      -0.2726
     11  CA        49.4090   29.5130   14.7550 C.3    17  PRO17       0.1402
     12  C         49.8240   28.8000   13.4660 C.2    17  PRO17       0.2269
     13  O         51.0020   28.4610   13.2980 O.2    17  PRO17      -0.2865
     14  CB        49.2350   31.0170   14.4720 C.3    17  PRO17       0.0296
     15  CG        50.3930   31.7020   15.0440 C.3    17  PRO17       0.0237
     16  CD        51.0210   30.8010   16.0710 C.3    17  PRO17       0.0939
     17  N         41.4070   33.3510   22.4600 N.3    67  GLU67      -0.1231
     18  CA        42.0590   32.1140   22.0240 C.3    67  GLU67       0.1684
     19  C         42.0980   31.1010   23.1930 C.2    67  GLU67       0.2434
     20  O         41.8500   31.4660   24.3550 O.2    67  GLU67      -0.2733
     21  CB        43.4210   32.3910   21.3540 C.3    67  GLU67       0.0402
     22  CG        44.6260   32.5190   22.2590 C.3    67  GLU67       0.1161
     23  CD        45.4390   31.2210   22.3330 C.2    67  GLU67       0.3649
     24  OE1       45.7820   30.8230   23.4420 O.co2  67  GLU67      -0.2457
     25  OE2       45.7880   30.6200   21.2960 O.co2  67  GLU67      -0.2457
     26  N         42.3460   29.8150   22.8860 N.am   68  PRO68      -0.2718
     27  CA        42.1410   28.7600   23.8930 C.3    68  PRO68       0.1535
     28  C         42.7980   28.8490   25.2770 C.2    68  PRO68       0.2598
     29  O         42.2950   28.1840   26.1800 O.2    68  PRO68      -0.2715
     30  CB        42.6090   27.4860   23.1700 C.3    68  PRO68       0.0310
     31  CG        42.2330   27.7520   21.7490 C.3    68  PRO68       0.0237
     32  CD        42.7120   29.2270   21.5790 C.3    68  PRO68       0.0939
     33  N         43.8540   29.6410   25.4830 N.am   69  VAL69      -0.1978
     34  CA        44.3390   29.8300   26.8770 C.3    69  VAL69       0.1596
     35  C         43.2150   30.4120   27.7450 C.2    69  VAL69       0.2287
     36  O         43.2030   30.1940   28.9480 O.2    69  VAL69      -0.2864
     37  CB        45.6090   30.7020   27.0310 C.3    69  VAL69       0.0276
     38  CG1       46.8310   29.9990   26.4360 C.3    69  VAL69       0.0022
     39  CG2       45.3980   32.1180   26.4410 C.3    69  VAL69       0.0022
     40  N         41.1720   27.3410   28.9010 N.3    72  LEU72      -0.1245
     41  CA        41.9060   26.6010   29.9200 C.3    72  LEU72       0.1561
     42  C         41.8630   27.2840   31.2840 C.2    72  LEU72       0.2260
     43  O         41.5640   26.6450   32.2940 O.2    72  LEU72      -0.2867
     44  CB        43.3560   26.3590   29.4850 C.3    72  LEU72       0.0270
     45  CG        43.5360   25.5210   28.2090 C.3    72  LEU72       0.0019
     46  CD1       45.0020   25.5720   27.7940 C.3    72  LEU72       0.0001
     47  CD2       43.0130   24.0650   28.3720 C.3    72  LEU72       0.0001
     48  N         52.4320   22.2510   28.1980 N.3    94  TYR94      -0.1241
     49  CA        51.0300   22.6170   28.5180 C.3    94  TYR94       0.1605
     50  C         50.4440   21.8460   29.6970 C.2    94  TYR94       0.2264
     51  O         49.7520   22.4240   30.5250 O.2    94  TYR94      -0.2867
     52  CB        50.1100   22.5820   27.2910 C.3    94  TYR94       0.0534
     53  CG        50.3560   23.7960   26.4450 C.ar   94  TYR94      -0.0201
     54  CD1       49.6510   24.9940   26.6680 C.ar   94  TYR94      -0.0009
     55  CD2       51.3340   23.7710   25.4510 C.ar   94  TYR94      -0.0009
     56  CE1       49.9220   26.1400   25.8920 C.ar   94  TYR94       0.0417
     57  CE2       51.6020   24.8810   24.6850 C.ar   94  TYR94       0.0417
     58  CZ        50.9070   26.0620   24.9100 C.ar   94  TYR94       0.1957
     59  OH        51.2120   27.1580   24.1150 O.3    94  TYR94      -0.2866
     60  N         46.4030   16.9840   29.0130 N.3   141  CYS141     -0.1235
     61  CA        46.5720   17.5700   27.6870 C.3   141  CYS141      0.1677
     62  C         46.6600   16.4120   26.6640 C.2   141  CYS141      0.2270
     63  O         47.4710   15.5080   26.8410 O.2   141  CYS141     -0.2867
     64  CB        47.8530   18.4090   27.6680 C.3   141  CYS141      0.0956
     65  SG        48.1690   19.2660   26.1080 S.3   141  CYS141     -0.0801
     66  N         47.3290   16.5930   23.0110 N.3   143  HIS143     -0.1241
     67  CA        48.5430   16.7830   22.2420 C.3   143  HIS143      0.1621
     68  C         49.3290   17.9080   22.8900 C.2   143  HIS143      0.2264
     69  O         48.9460   19.0920   22.7890 O.2   143  HIS143     -0.2867
     70  CB        48.1620   17.0610   20.7690 C.3   143  HIS143      0.0745
     71  CG        49.3020   17.4290   19.8530 C.ar  143  HIS143      0.0817
     72  ND1       50.6180   17.0530   20.0590 N.ar  143  HIS143     -0.2268
     73  CD2       49.2910   18.1230   18.6930 C.ar  143  HIS143      0.1154
     74  CE1       51.3650   17.5200   19.0720 C.ar  143  HIS143      0.1986
     75  NE2       50.5800   18.1650   18.2270 N.ar  143  HIS143     -0.2212
     76  N         51.7200   20.1400   22.4730 N.3   145  THR145     -0.1204
     77  CA        52.2400   20.4860   21.1640 C.3   145  THR145      0.1979
     78  C         53.7810   20.6950   21.1180 C.2   145  THR145      0.2459
     79  O         54.4420   20.2360   20.1890 O.2   145  THR145     -0.2732
     80  CB        51.4420   21.6770   20.5420 C.3   145  THR145      0.1783
     81  OG1       50.0550   21.6020   20.9400 O.3   145  THR145     -0.2211
     82  CG2       51.5330   21.6300   19.0060 C.3   145  THR145      0.0376
     83  N         54.3520   21.4310   22.1000 N.am  146  PRO146     -0.2728
     84  CA        55.8170   21.6540   22.1110 C.3   146  PRO146      0.1401
     85  C         56.6590   20.3710   22.1590 C.2   146  PRO146      0.2269
     86  O         57.8720   20.4340   21.9690 O.2   146  PRO146     -0.2865
     87  CB        56.0300   22.5140   23.3690 C.3   146  PRO146      0.0296
     88  CG        54.6880   23.2320   23.5560 C.3   146  PRO146      0.0237
     89  CD        53.6670   22.1880   23.1740 C.3   146  PRO146      0.0939
     90  N         42.5940   19.4090   27.4540 N.3   170  ASP170     -0.1239
     91  CA        43.0970   20.3410   26.4480 C.3   170  ASP170      0.1674
     92  C         43.2760   19.5380   25.1380 C.2   170  ASP170      0.2266
     93  O         44.2220   18.7350   25.0190 O.2   170  ASP170     -0.2867
     94  CB        44.4600   20.8920   26.9120 C.3   170  ASP170      0.1410
     95  CG        45.1480   21.7500   25.8600 C.2   170  ASP170      0.3668
     96  OD1       46.0440   22.5480   26.2370 O.co2 170  ASP170     -0.2456
     97  OD2       44.8260   21.6020   24.6650 O.co2 170  ASP170     -0.2456
     98  N         43.2960   21.2930   22.1320 N.3   172  VAL172     -0.1231
     99  CA        43.4670   22.4380   21.2300 C.3   172  VAL172      0.1692
    100  C         44.1740   22.0700   19.9200 C.2   172  VAL172      0.2592
    101  O         43.7880   22.5510   18.8360 O.2   172  VAL172     -0.2718
    102  CB        44.2330   23.5710   21.9520 C.3   172  VAL172      0.0266
    103  CG1       44.7100   24.6560   20.9470 C.3   172  VAL172      0.0020
    104  CG2       43.3550   24.1610   23.0500 C.3   172  VAL172      0.0020
    105  N         45.1980   21.2200   20.0190 N.am  173  SER173     -0.1952
    106  CA        46.0270   20.8770   18.8640 C.3   173  SER173      0.1924
    107  C         45.8140   19.4690   18.3160 C.2   173  SER173      0.2314
    108  O         46.6460   18.9800   17.5710 O.2   173  SER173     -0.2863
    109  CB        47.4950   21.0900   19.1910 C.3   173  SER173      0.2116
    110  OG        47.9080   20.3570   20.3450 O.3   173  SER173     -0.2180
    111  N         44.2740   25.4310   14.7900 N.3   196  LYS196     -0.1245
    112  CA        45.1970   24.3560   14.5020 C.3   196  LYS196      0.1561
    113  C         44.6270   23.5180   13.3460 C.2   196  LYS196      0.2260
    114  O         44.6460   23.9610   12.2000 O.2   196  LYS196     -0.2867
    115  CB        45.5010   23.5400   15.7660 C.3   196  LYS196      0.0271
    116  CG        46.5070   24.2510   16.7010 C.3   196  LYS196      0.0035
    117  CD        45.8510   25.4280   17.4520 C.3   196  LYS196      0.0206
    118  CE        46.8700   26.2070   18.2900 C.3   196  LYS196      0.1093
    119  NZ        46.2320   27.3760   18.9840 N.3   196  LYS196     -0.1314
    120  N         58.1960   25.6900   13.3480 N.3   332  SER332     -0.1217
    121  CA        58.0530   26.1290   14.7290 C.3   332  SER332      0.1889
    122  C         59.2690   25.7650   15.5790 C.2   332  SER332      0.2288
    123  O         59.9010   24.7000   15.4000 O.2   332  SER332     -0.2866
    124  CB        56.8060   25.5150   15.3730 C.3   332  SER332      0.2089
    125  OG        55.6260   26.1930   14.9740 O.3   332  SER332     -0.2183
    126  N         59.0230   25.1270   22.8730 N.3   335  ARG335     -0.1245
    127  CA        58.4490   26.0870   23.8270 C.3   335  ARG335      0.1563
    128  C         58.9020   25.6520   25.2180 C.2   335  ARG335      0.2260
    129  O         58.9750   24.4570   25.4990 O.2   335  ARG335     -0.2867
    130  CB        56.9180   26.0900   23.7170 C.3   335  ARG335      0.0307
    131  CG        56.2290   27.0690   24.6440 C.3   335  ARG335      0.0489
    132  CD        54.7360   27.1490   24.4360 C.3   335  ARG335      0.2205
    133  NE        54.1870   28.1510   25.3550 N.pl3 335  ARG335     -0.0865
    134  CZ        53.9300   29.4130   25.0160 C.cat 335  ARG335      0.5346
    135  NH1       54.1300   29.8200   23.7720 N.pl3 335  ARG335      0.1354
    136  NH2       53.4630   30.2660   25.9210 N.pl3 335  ARG335      0.1354
    137  N         59.7070   21.8810   15.3340 N.3   344  ARG344     -0.1245
    138  CA        58.3730   21.3260   15.0310 C.3   344  ARG344      0.1563
    139  C         57.9180   21.6380   13.6160 C.2   344  ARG344      0.2260
    140  O         58.0220   22.7850   13.1330 O.2   344  ARG344     -0.2867
    141  CB        57.3220   21.8250   16.0390 C.3   344  ARG344      0.0307
    142  CG        57.5070   21.2670   17.4460 C.3   344  ARG344      0.0489
    143  CD        56.4560   21.8250   18.3980 C.3   344  ARG344      0.2205
    144  NE        56.6330   23.2510   18.7140 N.pl3 344  ARG344     -0.0865
    145  CZ        55.7100   24.0170   19.3010 C.cat 344  ARG344      0.5346
    146  NH1       54.4940   23.5380   19.5920 N.pl3 344  ARG344      0.1354
    147  NH2       55.9930   25.2840   19.5730 N.pl3 344  ARG344      0.1354
@<TRIPOS>BOND
     1   114   113    2
     2   140   139    2
     3    13    12    2
     4   113   112    1
     5   120   121    1
     6    12    11    1
     7   139   138    1
     8     1     2    1
     9    14    11    1
    10    14    15    1
    11   112   111    1
    12   112   115    1
    13   121   124    1
    14   121   122    1
    15    11    10    1
    16     2     3    1
    17     2     5    1
    18   125   124    1
    19   138   137    1
    20   138   141    1
    21    15    16    1
    22     6     3   am
    23     6     7    1
    24   123   122    2
    25     3     4    2
    26    10    16    1
    27    10     8   am
    28   115   116    1
    29     7     8    1
    30   141   142    1
    31     8     9    2
    32   116   117    1
    33   142   143    1
    34   117   118    1
    35   108   107    2
    36    75    73   ar
    37    75    74   ar
    38   118   119    1
    39   107   106    1
    40   143   144    1
    41    73    71   ar
    42   144   145    2
    43   101   100    2
    44   106   109    1
    45   106   105    1
    46    82    80    1
    47    74    72   ar
    48   109   110    1
    49   145   147    1
    50   145   146    1
    51    71    72   ar
    52    71    70    1
    53   100   105   am
    54   100    99    1
    55    79    78    2
    56    80    81    1
    57    80    77    1
    58    70    67    1
    59   103   102    1
    60    78    77    1
    61    78    83   am
    62    77    76    1
    63    99   102    1
    64    99    98    1
    65    25    23   ar
    66    21    18    1
    67    21    22    1
    68    32    31    1
    69    32    26    1
    70    31    30    1
    71   102   104    1
    72    86    85    2
    73    18    17    1
    74    18    19    1
    75    83    84    1
    76    83    89    1
    77    84    85    1
    78    84    87    1
    79    67    68    1
    80    67    66    1
    81    22    23    1
    82    23    24   ar
    83    69    68    2
    84   126   127    1
    85    26    19   am
    86    26    27    1
    87    30    27    1
    88    89    88    1
    89    19    20    2
    90    87    88    1
    91   130   127    1
    92   130   131    1
    93   135   134    1
    94   127   128    1
    95    27    28    1
    96    59    58    1
    97   132   131    1
    98   132   133    1
    99    97    95   ar
   100    57    58   ar
   101    57    55   ar
   102    58    56   ar
   103   134   133    2
   104   134   136    1
   105    93    92    2
   106    92    91    1
   107   128   129    2
   108    28    33   am
   109    28    29    2
   110    55    53   ar
   111    33    34    1
   112    95    96   ar
   113    95    94    1
   114    56    54   ar
   115    65    64    1
   116    38    37    1
   117    39    37    1
   118    53    54   ar
   119    53    52    1
   120    91    94    1
   121    91    90    1
   122    62    63    2
   123    62    61    1
   124    34    37    1
   125    34    35    1
   126    52    49    1
   127    64    61    1
   128    61    60    1
   129    35    36    2
   130    46    45    1
   131    48    49    1
   132    45    47    1
   133    45    44    1
   134    49    50    1
   135    40    41    1
   136    44    41    1
   137    50    51    2
   138    41    42    1
   139    42    43    2
