@<TRIPOS>MOLECULE
tmp/2z9zA00.pdb
 246 234 0 0 0
SMALL
GASTEIGER

@<TRIPOS>ATOM
      1  N         -2.8350    2.3190    8.1260 N.3    73  PHE73      -0.1241
      2  CA        -2.5880    1.8060    9.4820 C.3    73  PHE73       0.1605
      3  C         -1.8830    0.4590    9.4310 C.2    73  PHE73       0.2264
      4  O         -1.0040    0.1970   10.2590 O.2    73  PHE73      -0.2867
      5  CB        -3.9100    1.6830   10.2280 C.3    73  PHE73       0.0534
      6  CG        -3.7790    1.3490   11.7120 C.ar   73  PHE73      -0.0203
      7  CD1       -3.2550    2.2650   12.6260 C.ar   73  PHE73      -0.0042
      8  CD2       -4.2270    0.1180   12.1910 C.ar   73  PHE73      -0.0042
      9  CE1       -3.1560    1.9330   14.0070 C.ar   73  PHE73      -0.0003
     10  CE2       -4.1430   -0.2190   13.5550 C.ar   73  PHE73      -0.0003
     11  CZ        -3.6020    0.6870   14.4610 C.ar   73  PHE73      -0.0000
     12  N          4.8010    2.7940    8.0750 N.3    79  ARG79      -0.1245
     13  CA         4.7960    2.9300    9.5520 C.3    79  ARG79       0.1563
     14  C          5.6930    4.0470   10.0850 C.2    79  ARG79       0.2260
     15  O          5.3150    4.7610   11.0210 O.2    79  ARG79      -0.2867
     16  CB         5.2150    1.6160   10.2390 C.3    79  ARG79       0.0307
     17  CG         4.2930    0.4230   10.0280 C.3    79  ARG79       0.0489
     18  CD         3.1380    0.3480   11.0470 C.3    79  ARG79       0.2205
     19  NE         2.1630   -0.6890   10.6800 N.pl3  79  ARG79      -0.0865
     20  CZ         2.1210   -1.9120   11.2090 C.cat  79  ARG79       0.5346
     21  NH1        2.9830   -2.2570   12.1590 N.pl3  79  ARG79       0.1354
     22  NH2        1.2020   -2.7900   10.8040 N.pl3  79  ARG79       0.1354
     23  N          4.4950    7.9440   10.3240 N.3    82  TRP82      -0.1227
     24  CA         3.5020    8.4100   11.2960 C.3    82  TRP82       0.1737
     25  C          3.7380    7.9370   12.7370 C.2    82  TRP82       0.2595
     26  O          3.4290    8.6600   13.6870 O.2    82  TRP82      -0.2718
     27  CB         2.0720    8.0900   10.8220 C.3    82  TRP82       0.0564
     28  CG         1.7840    6.6280   10.6250 C.ar   82  TRP82       0.0003
     29  CD1        1.8700    5.9170    9.4560 C.ar   82  TRP82       0.0946
     30  CD2        1.3540    5.6990   11.6280 C.ar   82  TRP82       0.0152
     31  NE1        1.5280    4.6000    9.6760 N.ar   82  TRP82      -0.2442
     32  CE2        1.2030    4.4440   11.0000 C.ar   82  TRP82       0.0810
     33  CE3        1.0780    5.8090   13.0020 C.ar   82  TRP82       0.0012
     34  CZ2        0.7910    3.2960   11.7020 C.ar   82  TRP82       0.0191
     35  CZ3        0.6780    4.6700   13.6970 C.ar   82  TRP82       0.0001
     36  CH2        0.5330    3.4330   13.0430 C.ar   82  TRP82       0.0015
     37  N          4.2780    6.7270   12.8900 N.am   83  GLU83      -0.1979
     38  CA         4.4820    6.1440   14.2180 C.3    83  GLU83       0.1602
     39  C          5.7520    6.6790   14.8820 C.2    83  GLU83       0.2287
     40  O          6.8020    6.7600   14.2410 O.2    83  GLU83      -0.2864
     41  CB         4.5190    4.6120   14.1290 C.3    83  GLU83       0.0415
     42  CG         5.0690    3.9120   15.3880 C.3    83  GLU83       0.1163
     43  CD         4.2090    4.1480   16.6230 C.2    83  GLU83       0.3649
     44  OE1        2.9650    4.0860   16.5210 O.co2  83  GLU83      -0.2457
     45  OE2        4.7670    4.4030   17.7000 O.co2  83  GLU83      -0.2457
     46  N          6.5410    5.9180   18.6740 N.3    85  THR85      -0.1203
     47  CA         6.9880    5.0520   19.7830 C.3    85  THR85       0.1994
     48  C          7.7580    3.7740   19.3840 C.2    85  THR85       0.2617
     49  O          8.3350    3.1180   20.2410 O.2    85  THR85      -0.2717
     50  CB         5.8060    4.6680   20.7290 C.3    85  THR85       0.1784
     51  OG1        5.0310    3.6130   20.1490 O.3    85  THR85      -0.2211
     52  CG2        4.9060    5.8440   20.9820 C.3    85  THR85       0.0376
     53  N          7.7610    3.4120   18.1020 N.am   86  ILE86      -0.1979
     54  CA         8.4520    2.1890   17.6480 C.3    86  ILE86       0.1595
     55  C          9.9180    2.4520   17.3100 C.2    86  ILE86       0.2287
     56  O         10.2410    3.4060   16.5990 O.2    86  ILE86      -0.2864
     57  CB         7.7390    1.5140   16.4370 C.3    86  ILE86       0.0276
     58  CG1        6.3700    0.9590   16.8540 C.3    86  ILE86       0.0022
     59  CG2        8.6050    0.4020   15.8450 C.3    86  ILE86       0.0022
     60  CD1        5.4980    0.4890   15.6950 C.3    86  ILE86       0.0001
     61  N          8.3410   -6.3500   16.9090 N.3   104  GLN104     -0.1245
     62  CA         8.8050   -4.9700   17.0940 C.3   104  GLN104      0.1566
     63  C          9.2320   -4.6360   18.5240 C.2   104  GLN104      0.2260
     64  O          8.7350   -5.2140   19.4950 O.2   104  GLN104     -0.2867
     65  CB         7.7490   -3.9540   16.6150 C.3   104  GLN104      0.0367
     66  CG         6.4980   -3.8420   17.4780 C.3   104  GLN104      0.0905
     67  CD         5.4260   -2.9700   16.8460 C.2   104  GLN104      0.2608
     68  OE1        5.3070   -2.9120   15.6280 O.2   104  GLN104     -0.2717
     69  NE2        4.6280   -2.3160   17.6710 N.am  104  GLN104     -0.0878
     70  N          9.8830   -1.1800   21.1670 N.3   106  HIS106     -0.1241
     71  CA         9.3890    0.1660   21.3840 C.3   106  HIS106      0.1621
     72  C         10.4340    1.0050   22.0760 C.2   106  HIS106      0.2264
     73  O         11.1760    0.5070   22.9290 O.2   106  HIS106     -0.2867
     74  CB         8.1210    0.1560   22.2450 C.3   106  HIS106      0.0745
     75  CG         6.8960   -0.2670   21.5040 C.ar  106  HIS106      0.0817
     76  ND1        6.0360    0.6350   20.9160 N.ar  106  HIS106     -0.2268
     77  CD2        6.3990   -1.4960   21.2290 C.ar  106  HIS106      0.1154
     78  CE1        5.0520   -0.0210   20.3250 C.ar  106  HIS106      0.1986
     79  NE2        5.2520   -1.3150   20.4960 N.ar  106  HIS106     -0.2212
     80  N          8.9460    4.7440   26.6930 N.3   109  VAL109     -0.1231
     81  CA         7.9540    5.7950   26.9500 C.3   109  VAL109      0.1692
     82  C          7.7580    6.1050   28.4370 C.2   109  VAL109      0.2592
     83  O          7.1340    7.1080   28.7930 O.2   109  VAL109     -0.2718
     84  CB         6.6000    5.5410   26.2490 C.3   109  VAL109      0.0266
     85  CG1        6.7020    5.9140   24.7780 C.3   109  VAL109      0.0020
     86  CG2        6.1530    4.1010   26.4250 C.3   109  VAL109      0.0020
     87  N          8.2840    5.2340   29.2940 N.am  110  TRP110     -0.1976
     88  CA         8.5220    5.5790   30.6940 C.3   110  TRP110      0.1640
     89  C          9.9200    5.0480   31.0600 C.2   110  TRP110      0.2290
     90  O         10.4170    4.1390   30.3900 O.2   110  TRP110     -0.2864
     91  CB         7.3990    5.0510   31.6030 C.3   110  TRP110      0.0576
     92  CG         7.3120    3.5610   31.6980 C.ar  110  TRP110      0.0006
     93  CD1        7.9530    2.7620   32.6010 C.ar  110  TRP110      0.0946
     94  CD2        6.5240    2.6860   30.8760 C.ar  110  TRP110      0.0152
     95  NE1        7.6270    1.4440   32.3870 N.ar  110  TRP110     -0.2442
     96  CE2        6.7540    1.3660   31.3330 C.ar  110  TRP110      0.0810
     97  CE3        5.6520    2.8860   29.7930 C.ar  110  TRP110      0.0012
     98  CZ2        6.1340    0.2460   30.7460 C.ar  110  TRP110      0.0191
     99  CZ3        5.0390    1.7710   29.2060 C.ar  110  TRP110      0.0001
    100  CH2        5.2910    0.4700   29.6840 C.ar  110  TRP110      0.0015
    101  N          9.9870   -2.3230   25.7870 N.3   115  ARG115     -0.1245
    102  CA         9.0190   -3.3800   25.5440 C.3   115  ARG115      0.1563
    103  C          9.1960   -3.8850   24.1370 C.2   115  ARG115      0.2260
    104  O          9.5000   -3.1080   23.2340 O.2   115  ARG115     -0.2867
    105  CB         7.5810   -2.8730   25.7260 C.3   115  ARG115      0.0307
    106  CG         6.9550   -3.2150   27.0780 C.3   115  ARG115      0.0489
    107  CD         7.7090   -2.5870   28.2320 C.3   115  ARG115      0.2205
    108  NE         7.2250   -3.1040   29.5040 N.pl3 115  ARG115     -0.0865
    109  CZ         7.7940   -2.8740   30.6860 C.cat 115  ARG115      0.5346
    110  NH1        8.8990   -2.1380   30.7730 N.pl3 115  ARG115      0.1354
    111  NH2        7.2620   -3.3990   31.7840 N.pl3 115  ARG115      0.1354
    112  N          7.0150   -6.6020   21.2300 N.3   117  VAL117     -0.1245
    113  CA         5.6930   -7.1310   20.9390 C.3   117  VAL117      0.1561
    114  C          5.8050   -8.0640   19.7530 C.2   117  VAL117      0.2260
    115  O          6.6130   -7.8330   18.8470 O.2   117  VAL117     -0.2867
    116  CB         4.6570   -6.0040   20.5900 C.3   117  VAL117      0.0252
    117  CG1        3.2260   -6.5020   20.8430 C.3   117  VAL117      0.0019
    118  CG2        4.9240   -4.7150   21.4070 C.3   117  VAL117      0.0019
    119  N          2.9420   -9.8490   17.2550 N.3   119  TYR119     -0.1241
    120  CA         1.5180   -9.8490   17.0070 C.3   119  TYR119      0.1605
    121  C          1.1820  -10.1390   15.5560 C.2   119  TYR119      0.2264
    122  O          1.9800   -9.8540   14.6560 O.2   119  TYR119     -0.2867
    123  CB         0.8930   -8.5010   17.4310 C.3   119  TYR119      0.0534
    124  CG         1.4390   -7.2830   16.6990 C.ar  119  TYR119     -0.0201
    125  CD1        0.7680   -6.7340   15.6020 C.ar  119  TYR119     -0.0009
    126  CD2        2.6240   -6.6700   17.1210 C.ar  119  TYR119     -0.0009
    127  CE1        1.2800   -5.6050   14.9370 C.ar  119  TYR119      0.0417
    128  CE2        3.1360   -5.5490   16.4740 C.ar  119  TYR119      0.0417
    129  CZ         2.4530   -5.0230   15.3790 C.ar  119  TYR119      0.1957
    130  OH         2.9620   -3.9210   14.7310 O.3   119  TYR119     -0.2866
    131  N         -1.0940   -9.0530   12.5190 N.3   121  SER121     -0.1217
    132  CA        -1.7500   -7.8110   12.0750 C.3   121  SER121      0.1889
    133  C         -2.4440   -8.1590   10.7880 C.2   121  SER121      0.2288
    134  O         -1.8090   -8.6270    9.8420 O.2   121  SER121     -0.2866
    135  CB        -0.7210   -6.7130   11.8260 C.3   121  SER121      0.2089
    136  OG        -1.3390   -5.5170   11.3520 O.3   121  SER121     -0.2183
    137  N         -8.5060   -3.2780   11.0750 N.3   139  VAL139     -0.1245
    138  CA        -7.1800   -3.8270   11.2120 C.3   139  VAL139      0.1561
    139  C         -7.1200   -4.2960   12.6550 C.2   139  VAL139      0.2260
    140  O         -7.3450   -3.5090   13.5790 O.2   139  VAL139     -0.2867
    141  CB        -6.0750   -2.7890   10.9590 C.3   139  VAL139      0.0252
    142  CG1       -4.7120   -3.3880   11.1700 C.3   139  VAL139      0.0019
    143  CG2       -6.1770   -2.1910    9.5260 C.3   139  VAL139      0.0019
    144  N         -4.7200   -6.1980   15.5480 N.3   141  ALA141     -0.1245
    145  CA        -3.3450   -6.4830   15.9150 C.3   141  ALA141      0.1562
    146  C         -3.4090   -7.1570   17.2810 C.2   141  ALA141      0.2260
    147  O         -3.9010   -6.5700   18.2540 O.2   141  ALA141     -0.2867
    148  CB        -2.5290   -5.2180   15.9980 C.3   141  ALA141      0.0290
    149  N          5.3850   -7.2130   25.9200 N.3   158  ALA158     -0.1245
    150  CA         4.0220   -6.7000   26.0640 C.3   158  ALA158      0.1562
    151  C          3.0790   -7.6240   25.3300 C.2   158  ALA158      0.2260
    152  O          3.4690   -8.2950   24.3620 O.2   158  ALA158     -0.2867
    153  CB         3.9110   -5.2720   25.5050 C.3   158  ALA158      0.0290
    154  N         -0.7160   -7.4860   23.4370 N.3   160  ILE160     -0.1245
    155  CA        -1.6790   -6.5180   22.9040 C.3   160  ILE160      0.1561
    156  C         -2.9060   -7.1200   22.2520 C.2   160  ILE160      0.2260
    157  O         -2.8960   -8.2350   21.6950 O.2   160  ILE160     -0.2867
    158  CB        -1.0070   -5.5330   21.9050 C.3   160  ILE160      0.0252
    159  CG1       -0.5450   -6.2590   20.6200 C.3   160  ILE160      0.0019
    160  CG2        0.0980   -4.7820   22.5810 C.3   160  ILE160      0.0019
    161  CD1       -0.4550   -5.3590   19.3800 C.3   160  ILE160      0.0001
    162  N         -5.4360   -4.8630   19.8280 N.3   162  VAL162     -0.1245
    163  CA        -5.6560   -3.4940   19.3220 C.3   162  VAL162      0.1561
    164  C         -6.4920   -3.6240   18.0540 C.2   162  VAL162      0.2260
    165  O         -6.3060   -4.5680   17.2700 O.2   162  VAL162     -0.2867
    166  CB        -4.2900   -2.8020   18.9840 C.3   162  VAL162      0.0252
    167  CG1       -4.4930   -1.5410   18.1330 C.3   162  VAL162      0.0019
    168  CG2       -3.4830   -2.4340   20.2420 C.3   162  VAL162      0.0019
    169  N        -11.0860    3.1670   17.7000 N.3   190  TYR190     -0.1241
    170  CA        -9.7920    2.5690   17.9560 C.3   190  TYR190      0.1605
    171  C         -9.8460    1.9990   19.3870 C.2   190  TYR190      0.2264
    172  O        -10.2490    2.6970   20.3140 O.2   190  TYR190     -0.2867
    173  CB        -8.6920    3.6300   17.8600 C.3   190  TYR190      0.0534
    174  CG        -7.3420    3.1380   18.3200 C.ar  190  TYR190     -0.0201
    175  CD1       -6.5240    2.4280   17.4610 C.ar  190  TYR190     -0.0009
    176  CD2       -6.8770    3.4000   19.6220 C.ar  190  TYR190     -0.0009
    177  CE1       -5.2980    1.9840   17.8400 C.ar  190  TYR190      0.0417
    178  CE2       -5.6420    2.9410   20.0230 C.ar  190  TYR190      0.0417
    179  CZ        -4.8580    2.2180   19.1360 C.ar  190  TYR190      0.1957
    180  OH        -3.6180    1.7440   19.4790 O.3   190  TYR190     -0.2866
    181  N         -3.9040   -3.4670   26.3800 N.3   194  VAL194     -0.1245
    182  CA        -2.4800   -3.7430   26.4080 C.3   194  VAL194      0.1561
    183  C         -2.0830   -4.1690   27.8220 C.2   194  VAL194      0.2260
    184  O         -2.5200   -3.5610   28.8090 O.2   194  VAL194     -0.2867
    185  CB        -1.6590   -2.5050   25.9380 C.3   194  VAL194      0.0252
    186  CG1       -0.1490   -2.7190   26.1490 C.3   194  VAL194      0.0019
    187  CG2       -1.9900   -2.1720   24.4710 C.3   194  VAL194      0.0019
    188  N          1.2920   -4.3430   29.7830 N.3   196  PRO196     -0.2116
    189  CA         2.6440   -3.8280   29.5470 C.3   196  PRO196      0.1372
    190  C          3.7270   -4.8430   29.9080 C.2   196  PRO196      0.2244
    191  O          4.8970   -4.6500   29.5690 O.2   196  PRO196     -0.2868
    192  CB         2.7190   -2.6160   30.4920 C.3   196  PRO196      0.0268
    193  CG         1.8150   -2.9690   31.6120 C.3   196  PRO196      0.0207
    194  CD         0.6570   -3.6740   30.9390 C.3   196  PRO196      0.0892
    195  N          1.8880    4.7730   34.2350 N.3   205  LEU205     -0.1245
    196  CA         1.3310    4.0140   33.1090 C.3   205  LEU205      0.1561
    197  C          0.0650    4.6560   32.5890 C.2   205  LEU205      0.2260
    198  O         -0.1860    4.6710   31.3690 O.2   205  LEU205     -0.2867
    199  CB         1.0320    2.5820   33.5290 C.3   205  LEU205      0.0270
    200  CG         2.2210    1.6470   33.7270 C.3   205  LEU205      0.0019
    201  CD1        1.7170    0.3560   34.3230 C.3   205  LEU205      0.0001
    202  CD2        2.9000    1.3950   32.3910 C.3   205  LEU205      0.0001
    203  N          1.2220    7.9070   30.7990 N.3   208  VAL208     -0.1231
    204  CA         1.7780    7.5650   29.4780 C.3   208  VAL208      0.1692
    205  C          0.6340    7.2930   28.4820 C.2   208  VAL208      0.2591
    206  O          0.6160    7.8670   27.3900 O.2   208  VAL208     -0.2718
    207  CB         2.7780    6.3710   29.5110 C.3   208  VAL208      0.0266
    208  CG1        3.2100    5.9950   28.0970 C.3   208  VAL208      0.0020
    209  CG2        4.0310    6.7050   30.3470 C.3   208  VAL208      0.0020
    210  N         -0.3370    6.4710   28.8880 N.am  209  ALA209     -0.1980
    211  CA        -1.5040    6.1530   28.0580 C.3   209  ALA209      0.1597
    212  C         -2.2420    7.4170   27.6170 C.2   209  ALA209      0.2287
    213  O         -2.5040    7.6120   26.4300 O.2   209  ALA209     -0.2864
    214  CB        -2.4540    5.2190   28.7970 C.3   209  ALA209      0.0319
    215  N          0.1430    9.2530   25.0190 N.3   212  GLU212     -0.1231
    216  CA         0.5920    8.6000   23.7950 C.3   212  GLU212      0.1699
    217  C         -0.5340    8.2600   22.8240 C.2   212  GLU212      0.2592
    218  O         -0.3580    8.4110   21.6240 O.2   212  GLU212     -0.2718
    219  CB         1.4540    7.3670   24.1060 C.3   212  GLU212      0.0402
    220  CG         2.8850    7.6780   24.5990 C.3   212  GLU212      0.1161
    221  CD         3.6230    8.7020   23.7340 C.2   212  GLU212      0.3649
    222  OE1        3.6850    8.5310   22.4990 O.co2 212  GLU212     -0.2457
    223  OE2        4.1560    9.6940   24.2830 O.co2 212  GLU212     -0.2457
    224  N         -1.7000    7.8470   23.3250 N.am  213  TYR213     -0.1976
    225  CA        -2.7980    7.4780   22.4060 C.3   213  TYR213      0.1639
    226  C         -3.4230    8.6600   21.6130 C.2   213  TYR213      0.2290
    227  O         -3.5390    8.5740   20.3700 O.2   213  TYR213     -0.2864
    228  CB        -3.8710    6.6350   23.1010 C.3   213  TYR213      0.0560
    229  CG        -3.4240    5.2340   23.4310 C.ar  213  TYR213     -0.0198
    230  CD1       -3.0310    4.9000   24.7310 C.ar  213  TYR213     -0.0009
    231  CD2       -3.3570    4.2450   22.4500 C.ar  213  TYR213     -0.0009
    232  CE1       -2.6140    3.6210   25.0570 C.ar  213  TYR213      0.0417
    233  CE2       -2.9390    2.9420   22.7600 C.ar  213  TYR213      0.0417
    234  CZ        -2.5660    2.6370   24.0790 C.ar  213  TYR213      0.1957
    235  OH        -2.1620    1.3590   24.4060 O.3   213  TYR213     -0.2866
    236  N         -0.8090    9.8110   18.9860 N.3   216  PHE216     -0.1241
    237  CA        -0.7990    8.8790   17.8700 C.3   216  PHE216      0.1605
    238  C         -2.0110    9.1240   16.9560 C.2   216  PHE216      0.2264
    239  O         -1.8340    9.2410   15.7450 O.2   216  PHE216     -0.2867
    240  CB        -0.7410    7.4320   18.3780 C.3   216  PHE216      0.0534
    241  CG        -1.6170    6.4920   17.5920 C.ar  216  PHE216     -0.0203
    242  CD1       -1.3540    6.2350   16.2440 C.ar  216  PHE216     -0.0042
    243  CD2       -2.7300    5.9140   18.1910 C.ar  216  PHE216     -0.0042
    244  CE1       -2.1710    5.3880   15.5050 C.ar  216  PHE216     -0.0003
    245  CE2       -3.5620    5.0670   17.4560 C.ar  216  PHE216     -0.0003
    246  CZ        -3.2850    4.8150   16.1120 C.ar  216  PHE216     -0.0000
@<TRIPOS>BOND
     1    12    13    1
     2     1     2    1
     3     3     2    1
     4     3     4    2
     5    29    31   ar
     6    29    28   ar
     7     2     5    1
     8   143   141    1
     9    13    14    1
    10    13    16    1
    11    31    32   ar
    12   134   133    2
    13    17    16    1
    14    17    18    1
    15    14    15    2
    16     5     6    1
    17    23    24    1
    18    28    27    1
    19    28    30   ar
    20    19    18    1
    21    19    20    2
    22   133   132    1
    23    22    20    1
    24    27    24    1
    25   141   142    1
    26   141   138    1
    27    32    30   ar
    28    32    34   ar
    29   137   138    1
    30    20    21    1
    31   138   139    1
    32    24    25    1
    33   136   135    1
    34    30    33   ar
    35    34    36   ar
    36     6     8   ar
    37     6     7   ar
    38   135   132    1
    39   132   131    1
    40     8    10   ar
    41     7     9   ar
    42   139   140    2
    43    25    37   am
    44    25    26    2
    45    37    38    1
    46    33    35   ar
    47    36    35   ar
    48    10    11   ar
    49     9    11   ar
    50    41    38    1
    51    41    42    1
    52    38    39    1
    53    40    39    2
    54   122   121    2
    55   130   129    1
    56   127   129   ar
    57   127   125   ar
    58   129   128   ar
    59    42    43    1
    60   244   246   ar
    61   244   242   ar
    62   144   145    1
    63   121   120    1
    64   125   124   ar
    65    68    67    2
    66    60    58    1
    67   239   238    2
    68    59    57    1
    69   145   148    1
    70   145   146    1
    71   246   245   ar
    72   242   241   ar
    73    57    58    1
    74    57    54    1
    75   128   126   ar
    76    44    43   ar
    77    56    55    2
    78    65    62    1
    79    65    66    1
    80    43    45   ar
    81   124   126   ar
    82   124   123    1
    83    67    66    1
    84    67    69   am
    85    61    62    1
    86   238   237    1
    87   120   119    1
    88   120   123    1
    89    62    63    1
    90   165   164    2
    91   146   147    2
    92    55    54    1
    93   245   243   ar
    94   175   177   ar
    95   175   174   ar
    96   241   243   ar
    97   241   240    1
    98    54    53    1
    99   169   170    1
   100   177   179   ar
   101   173   170    1
   102   173   174    1
   103   237   240    1
   104   237   236    1
   105   170   171    1
   106   164   163    1
   107    53    48   am
   108   167   166    1
   109   174   176   ar
   110    63    64    2
   111    46    47    1
   112   115   114    2
   113   166   163    1
   114   166   168    1
   115   179   180    1
   116   179   178   ar
   117   163   162    1
   118   161   159    1
   119    48    47    1
   120    48    49    2
   121   171   172    2
   122   176   178   ar
   123   114   113    1
   124    47    50    1
   125    51    50    1
   126    78    79   ar
   127    78    76   ar
   128   227   226    2
   129    79    77   ar
   130   116   117    1
   131   116   113    1
   132   116   118    1
   133   159   158    1
   134    50    52    1
   135    76    75   ar
   136   113   112    1
   137    70    71    1
   138    77    75   ar
   139    71    72    1
   140    71    74    1
   141    75    74    1
   142   226   225    1
   143   218   217    2
   144   157   156    2
   145   158   160    1
   146   158   155    1
   147    72    73    2
   148   156   155    1
   149   225   228    1
   150   225   224    1
   151   231   233   ar
   152   231   229   ar
   153   222   221   ar
   154   233   234   ar
   155   217   224   am
   156   217   216    1
   157   155   154    1
   158   228   229    1
   159   104   103    2
   160   229   230   ar
   161   221   223   ar
   162   221   220    1
   163   216   219    1
   164   216   215    1
   165   234   235    1
   166   234   232   ar
   167   219   220    1
   168   103   102    1
   169   152   151    2
   170   187   185    1
   171   230   232   ar
   172    85    84    1
   173   151   150    1
   174   153   150    1
   175   102   105    1
   176   102   101    1
   177   105   106    1
   178   149   150    1
   179   185   186    1
   180   185   182    1
   181    84    86    1
   182    84    81    1
   183   181   182    1
   184   182   183    1
   185   213   212    2
   186    80    81    1
   187    81    82    1
   188   106   107    1
   189   206   205    2
   190   212   211    1
   191   183   184    2
   192   211   214    1
   193   211   210    1
   194   208   207    1
   195   107   108    1
   196    82    83    2
   197    82    87   am
   198   205   210   am
   199   205   204    1
   200    99   100   ar
   201    99    97   ar
   202    87    88    1
   203   204   207    1
   204   204   203    1
   205   108   109    2
   206   207   209    1
   207   189   188    1
   208   189   190    1
   209   189   192    1
   210   191   190    2
   211   100    98   ar
   212   188   194    1
   213    97    94   ar
   214    90    89    2
   215   192   193    1
   216   109   110    1
   217   109   111    1
   218    88    89    1
   219    88    91    1
   220    98    96   ar
   221    94    96   ar
   222    94    92   ar
   223   194   193    1
   224    96    95   ar
   225   198   197    2
   226    91    92    1
   227    92    93   ar
   228    95    93   ar
   229   202   200    1
   230   197   196    1
   231   196   199    1
   232   196   195    1
   233   199   200    1
   234   200   201    1
