@<TRIPOS>MOLECULE
tmp/2za0A00.pdb
 88 81 0 0 0
SMALL
GASTEIGER

@<TRIPOS>ATOM
      1  N         39.4620   32.1790   49.5300 N.3   124  HIS124     -0.1241
      2  CA        39.2450   30.7790   49.1890 C.3   124  HIS124      0.1621
      3  C         37.7710   30.4270   49.2140 C.2   124  HIS124      0.2264
      4  O         36.9480   31.2290   49.6390 O.2   124  HIS124     -0.2867
      5  CB        39.9900   29.8770   50.2330 C.3   124  HIS124      0.0745
      6  CG        39.5790   30.1020   51.6710 C.ar  124  HIS124      0.0817
      7  ND1       40.3230   30.8630   52.5500 N.ar  124  HIS124     -0.2268
      8  CD2       38.5090   29.6620   52.3750 C.ar  124  HIS124      0.1154
      9  CE1       39.7320   30.8780   53.7350 C.ar  124  HIS124      0.1986
     10  NE2       38.6330   30.1540   53.6560 N.ar  124  HIS124     -0.2212
     11  N         47.9700   23.2680   52.3310 N.3   148  LYS148     -0.1245
     12  CA        48.2100   22.8870   53.7240 C.3   148  LYS148      0.1561
     13  C         47.6080   21.5180   53.9810 C.2   148  LYS148      0.2260
     14  O         46.3860   21.3540   53.8760 O.2   148  LYS148     -0.2867
     15  CB        47.5740   23.8830   54.7190 C.3   148  LYS148      0.0271
     16  CG        48.1490   23.7110   56.1380 C.3   148  LYS148      0.0035
     17  CD        47.3590   24.4550   57.2080 C.3   148  LYS148      0.0206
     18  CE        46.1880   23.6200   57.7290 C.3   148  LYS148      0.1093
     19  NZ        46.5820   22.4850   58.6780 N.3   148  LYS148     -0.1314
     20  N         49.6050   25.2290   61.1460 N.3   154  LYS154     -0.1231
     21  CA        48.6170   25.6930   62.0820 C.3   154  LYS154      0.1693
     22  C         47.2720   25.0450   61.7910 C.2   154  LYS154      0.2591
     23  O         47.0780   24.4450   60.7300 O.2   154  LYS154     -0.2718
     24  CB        48.5020   27.2170   61.9940 C.3   154  LYS154      0.0285
     25  CG        49.8120   27.9680   62.3160 C.3   154  LYS154      0.0035
     26  CD        50.3300   27.5960   63.7150 C.3   154  LYS154      0.0206
     27  CE        51.5160   28.4520   64.1720 C.3   154  LYS154      0.1093
     28  NZ        52.7270   28.3310   63.2930 N.3   154  LYS154     -0.1314
     29  N         46.3670   25.1400   62.7560 N.am  155  MET155     -0.1979
     30  CA        45.0170   24.6140   62.6000 C.3   155  MET155      0.1605
     31  C         44.9970   23.1540   62.1540 C.2   155  MET155      0.2287
     32  O         44.4670   22.8470   61.0950 O.2   155  MET155     -0.2864
     33  CB        44.2720   25.4680   61.5700 C.3   155  MET155      0.0413
     34  CG        43.1590   26.3240   62.1180 C.3   155  MET155      0.0598
     35  SD        43.7350   27.4040   63.4100 S.3   155  MET155     -0.1393
     36  CE        44.8710   28.4310   62.4370 C.3   155  MET155      0.0692
     37  N         42.3700   20.8420   59.7370 N.3   158  LEU158     -0.1245
     38  CA        41.8450   21.6600   58.6510 C.3   158  LEU158      0.1561
     39  C         42.8430   21.5990   57.4770 C.2   158  LEU158      0.2260
     40  O         44.0490   21.6370   57.6920 O.2   158  LEU158     -0.2867
     41  CB        41.7090   23.0920   59.1540 C.3   158  LEU158      0.0270
     42  CG        41.0580   24.1330   58.2500 C.3   158  LEU158      0.0019
     43  CD1       39.6240   23.7060   58.0070 C.3   158  LEU158      0.0001
     44  CD2       41.0960   25.5250   58.9200 C.3   158  LEU158      0.0001
     45  N         43.8660   22.7140   53.1360 N.3   160  PHE160     -0.1241
     46  CA        43.6630   23.6020   51.9990 C.3   160  PHE160      0.1605
     47  C         44.3010   22.9480   50.7970 C.2   160  PHE160      0.2264
     48  O         45.4560   22.4930   50.8670 O.2   160  PHE160     -0.2867
     49  CB        44.3380   24.9710   52.1950 C.3   160  PHE160      0.0534
     50  CG        43.6430   25.8690   53.2060 C.ar  160  PHE160     -0.0203
     51  CD1       42.6640   26.7690   52.8090 C.ar  160  PHE160     -0.0042
     52  CD2       43.9370   25.7580   54.5520 C.ar  160  PHE160     -0.0042
     53  CE1       42.0000   27.5400   53.7560 C.ar  160  PHE160     -0.0003
     54  CE2       43.2720   26.5210   55.5040 C.ar  160  PHE160     -0.0003
     55  CZ        42.3120   27.4070   55.1120 C.ar  160  PHE160     -0.0000
     56  N         39.3250   25.3480   50.9890 N.3   170  GLU170     -0.1245
     57  CA        39.4300   24.8290   52.3450 C.3   170  GLU170      0.1567
     58  C         38.6280   23.5220   52.4400 C.2   170  GLU170      0.2260
     59  O         37.5990   23.4050   51.7930 O.2   170  GLU170     -0.2867
     60  CB        38.8590   25.8570   53.2820 C.3   170  GLU170      0.0388
     61  CG        39.0780   25.5320   54.7190 C.3   170  GLU170      0.1160
     62  CD        38.6050   26.6650   55.6140 C.2   170  GLU170      0.3649
     63  OE1       38.9890   27.8200   55.3320 O.co2 170  GLU170     -0.2457
     64  OE2       37.8660   26.4060   56.5700 O.co2 170  GLU170     -0.2457
     65  N         37.0370   21.1880   55.3780 N.3   172  LEU172     -0.1245
     66  CA        36.8180   21.2180   56.8130 C.3   172  LEU172      0.1561
     67  C         35.7250   20.2640   57.2500 C.2   172  LEU172      0.2260
     68  O         34.9010   19.8750   56.4480 O.2   172  LEU172     -0.2867
     69  CB        36.4730   22.6700   57.2460 C.3   172  LEU172      0.0270
     70  CG        35.2180   23.5690   57.0730 C.3   172  LEU172      0.0019
     71  CD1       35.1420   24.2300   55.6960 C.3   172  LEU172      0.0001
     72  CD2       33.9600   22.8380   57.4940 C.3   172  LEU172      0.0001
     73  N         35.6370   21.7430   64.0970 N.3   177  ILE177     -0.1245
     74  CA        36.2010   23.0880   64.1140 C.3   177  ILE177      0.1561
     75  C         36.2790   23.6830   65.5180 C.2   177  ILE177      0.2260
     76  O         37.2360   24.3990   65.8380 O.2   177  ILE177     -0.2867
     77  CB        35.3780   24.0570   63.2390 C.3   177  ILE177      0.0252
     78  CG1       35.4640   23.6210   61.7880 C.3   177  ILE177      0.0019
     79  CG2       35.8930   25.4940   63.4230 C.3   177  ILE177      0.0019
     80  CD1       36.8310   23.8690   61.1510 C.3   177  ILE177      0.0001
     81  N         39.3670   23.4130   67.5260 N.3   180  ILE180     -0.1245
     82  CA        40.4260   23.9500   66.6770 C.3   180  ILE180      0.1561
     83  C         40.9570   22.9530   65.6790 C.2   180  ILE180      0.2260
     84  O         40.7690   23.2100   64.4710 O.2   180  ILE180     -0.2867
     85  CB        41.5850   24.5180   67.5110 C.3   180  ILE180      0.0252
     86  CG1       41.3030   25.9900   67.8210 C.3   180  ILE180      0.0019
     87  CG2       42.9130   24.3510   66.7780 C.3   180  ILE180      0.0019
     88  CD1       42.4200   26.6830   68.5870 C.3   180  ILE180      0.0001
@<TRIPOS>BOND
     1     2     3    1
     2     2     1    1
     3     2     5    1
     4     3     4    2
     5     5     6    1
     6    47    48    2
     7    47    46    1
     8    56    57    1
     9     6     8   ar
    10     6     7   ar
    11    59    58    2
    12    46    49    1
    13    46    45    1
    14    49    50    1
    15    11    12    1
    16    57    58    1
    17    57    60    1
    18     8    10   ar
    19     7     9   ar
    20    51    50   ar
    21    51    53   ar
    22    50    52   ar
    23    60    61    1
    24    10     9   ar
    25    12    13    1
    26    12    15    1
    27    53    55   ar
    28    14    13    2
    29    52    54   ar
    30    15    16    1
    31    61    62    1
    32    55    54   ar
    33    63    62   ar
    34    65    66    1
    35    62    64   ar
    36    71    70    1
    37    16    17    1
    38    68    67    2
    39    66    69    1
    40    66    67    1
    41    70    69    1
    42    70    72    1
    43    17    18    1
    44    39    40    2
    45    39    38    1
    46    18    19    1
    47    43    42    1
    48    42    44    1
    49    42    41    1
    50    38    41    1
    51    38    37    1
    52    23    22    2
    53    32    31    2
    54    20    21    1
    55    80    78    1
    56    33    34    1
    57    33    30    1
    58    78    77    1
    59    22    21    1
    60    22    29   am
    61    24    21    1
    62    24    25    1
    63    34    35    1
    64    31    30    1
    65    25    26    1
    66    36    35    1
    67    30    29    1
    68    77    79    1
    69    77    74    1
    70    28    27    1
    71    26    27    1
    72    73    74    1
    73    74    75    1
    74    84    83    2
    75    75    76    2
    76    83    82    1
    77    82    85    1
    78    82    81    1
    79    87    85    1
    80    85    86    1
    81    86    88    1
