@<TRIPOS>MOLECULE
tmp/2za0A01.pdb
 90 83 0 0 0
SMALL
GASTEIGER

@<TRIPOS>ATOM
      1  N         25.7470   32.3760   43.9970 N.3    31  GLN31      -0.1245
      2  CA        26.9600   32.0230   43.2950 C.3    31  GLN31       0.1566
      3  C         28.2180   32.7250   43.7550 C.2    31  GLN31       0.2260
      4  O         28.1690   33.8010   44.3430 O.2    31  GLN31      -0.2867
      5  CB        26.7710   32.3750   41.8210 C.3    31  GLN31       0.0367
      6  CG        26.3570   33.8790   41.6670 C.3    31  GLN31       0.0905
      7  CD        26.3390   34.3660   40.2330 C.2    31  GLN31       0.2608
      8  OE1       27.0650   35.2980   39.8830 O.2    31  GLN31      -0.2717
      9  NE2       25.5180   33.7540   39.4040 N.am   31  GLN31      -0.0878
     10  N         31.8010   33.6050   41.7420 N.3    33  MET33      -0.1245
     11  CA        32.4010   33.5090   40.4080 C.3    33  MET33       0.1570
     12  C         33.9080   33.5770   40.4140 C.2    33  MET33       0.2261
     13  O         34.4810   34.4460   41.0680 O.2    33  MET33      -0.2867
     14  CB        31.8670   34.6420   39.5020 C.3    33  MET33       0.0387
     15  CG        32.2730   34.5150   38.0180 C.3    33  MET33       0.0595
     16  SD        33.9940   35.0790   37.6720 S.3    33  MET33      -0.1393
     17  CE        33.6840   36.6990   36.8520 C.3    33  MET33       0.0692
     18  N         26.7860   27.8940   29.6390 N.3    58  LEU58      -0.1245
     19  CA        26.1800   29.0080   28.9040 C.3    58  LEU58       0.1561
     20  C         27.2370   29.6740   28.0610 C.2    58  LEU58       0.2260
     21  O         28.2580   30.0960   28.5870 O.2    58  LEU58      -0.2867
     22  CB        25.6100   30.0550   29.8540 C.3    58  LEU58       0.0270
     23  CG        24.4300   29.6310   30.7020 C.3    58  LEU58       0.0019
     24  CD1       24.9660   29.0230   32.0040 C.3    58  LEU58       0.0001
     25  CD2       23.5950   30.8640   31.0140 C.3    58  LEU58       0.0001
     26  N         28.4010   32.7250   25.3720 N.3    60  PHE60      -0.1241
     27  CA        28.0650   34.0940   24.9380 C.3    60  PHE60       0.1605
     28  C         28.9960   34.4500   23.7910 C.2    60  PHE60       0.2264
     29  O         30.0090   35.1420   23.9640 O.2    60  PHE60      -0.2867
     30  CB        28.2420   35.0640   26.1010 C.3    60  PHE60       0.0534
     31  CG        27.3010   34.8040   27.2350 C.ar   60  PHE60      -0.0203
     32  CD1       27.5890   33.8210   28.1760 C.ar   60  PHE60      -0.0042
     33  CD2       26.1160   35.5250   27.3540 C.ar   60  PHE60      -0.0042
     34  CE1       26.7150   33.5580   29.2230 C.ar   60  PHE60      -0.0003
     35  CE2       25.2290   35.2730   28.4020 C.ar   60  PHE60      -0.0003
     36  CZ        25.5300   34.2810   29.3490 C.ar   60  PHE60      -0.0000
     37  N         30.3370   38.0320   23.1530 N.3    63  MET63      -0.1245
     38  CA        31.3070   38.5020   24.1350 C.3    63  MET63       0.1570
     39  C         32.5000   37.5900   24.3450 C.2    63  MET63       0.2261
     40  O         33.3780   37.8870   25.1490 O.2    63  MET63      -0.2867
     41  CB        30.6060   38.7570   25.4630 C.3    63  MET63       0.0387
     42  CG        29.5910   39.8760   25.3510 C.3    63  MET63       0.0595
     43  SD        28.7280   40.1960   26.8470 S.3    63  MET63      -0.1393
     44  CE        27.6200   38.8100   26.8900 C.3    63  MET63       0.0692
     45  N         32.8840   34.5020   25.7180 N.3    65  PHE65      -0.1241
     46  CA        33.1310   33.8150   26.9910 C.3    65  PHE65       0.1605
     47  C         32.0450   32.7900   27.2250 C.2    65  PHE65       0.2264
     48  O         31.0150   32.7930   26.5300 O.2    65  PHE65      -0.2867
     49  CB        33.2340   34.7900   28.1980 C.3    65  PHE65       0.0534
     50  CG        31.9290   35.4110   28.6350 C.ar   65  PHE65      -0.0203
     51  CD1       31.5290   36.6450   28.1360 C.ar   65  PHE65      -0.0042
     52  CD2       31.1090   34.7820   29.5650 C.ar   65  PHE65      -0.0042
     53  CE1       30.3490   37.2350   28.5570 C.ar   65  PHE65      -0.0003
     54  CE2       29.9240   35.3500   29.9940 C.ar   65  PHE65      -0.0003
     55  CZ        29.5250   36.5860   29.4970 C.ar   65  PHE65      -0.0000
     56  N         30.1390   30.4720   30.6090 N.3    67  LEU67      -0.1245
     57  CA        29.9900   30.3070   32.0560 C.3    67  LEU67       0.1561
     58  C         29.6790   28.8470   32.3120 C.2    67  LEU67       0.2260
     59  O         28.8580   28.2360   31.6100 O.2    67  LEU67      -0.2867
     60  CB        28.8420   31.1280   32.6030 C.3    67  LEU67       0.0270
     61  CG        28.9610   32.6180   32.3380 C.3    67  LEU67       0.0019
     62  CD1       27.6880   33.3190   32.8250 C.3    67  LEU67       0.0001
     63  CD2       30.1930   33.1710   33.0220 C.3    67  LEU67       0.0001
     64  N         19.9480   29.0260   38.2200 N.3    90  PHE90      -0.1241
     65  CA        20.0970   30.3060   38.9370 C.3    90  PHE90       0.1605
     66  C         19.3180   30.5030   40.2400 C.2    90  PHE90       0.2264
     67  O         19.4020   31.5770   40.8720 O.2    90  PHE90      -0.2867
     68  CB        19.8230   31.4740   37.9700 C.3    90  PHE90       0.0534
     69  CG        20.9380   31.7050   36.9870 C.ar   90  PHE90      -0.0203
     70  CD1       21.9940   32.5650   37.2910 C.ar   90  PHE90      -0.0042
     71  CD2       20.9690   31.0270   35.7820 C.ar   90  PHE90      -0.0042
     72  CE1       23.0450   32.7360   36.4080 C.ar   90  PHE90      -0.0003
     73  CE2       22.0270   31.1940   34.8890 C.ar   90  PHE90      -0.0003
     74  CZ        23.0600   32.0490   35.2030 C.ar   90  PHE90      -0.0000
     75  N         30.3520   29.7250   39.7680 N.3    97  GLU97      -0.1245
     76  CA        30.2490   30.1920   38.3910 C.3    97  GLU97       0.1567
     77  C         31.6720   30.3010   37.8870 C.2    97  GLU97       0.2260
     78  O         32.4420   31.1520   38.3330 O.2    97  GLU97      -0.2867
     79  CB        29.5560   31.5440   38.3380 C.3    97  GLU97       0.0388
     80  CG        29.5790   32.1490   36.9310 C.3    97  GLU97       0.1160
     81  CD        29.2140   33.6210   36.8740 C.2    97  GLU97       0.3649
     82  OE1       28.5920   34.1280   37.8150 O.co2  97  GLU97      -0.2457
     83  OE2       29.5460   34.2700   35.8660 O.co2  97  GLU97      -0.2457
     84  N         34.0250   31.2550   34.9860 N.3    99  THR99      -0.1218
     85  CA        33.9970   32.0610   33.7650 C.3    99  THR99       0.1862
     86  C         35.1850   31.7390   32.8820 C.2    99  THR99       0.2287
     87  O         36.3330   31.8170   33.3140 O.2    99  THR99      -0.2866
     88  CB        34.0430   33.5410   34.1040 C.3    99  THR99       0.1770
     89  OG1       32.8510   33.9090   34.8020 O.3    99  THR99      -0.2211
     90  CG2       34.1060   34.3670   32.8410 C.3    99  THR99       0.0375
@<TRIPOS>BOND
     1    37    38    1
     2    28    29    2
     3    28    27    1
     4    38    39    1
     5    38    41    1
     6    39    40    2
     7    27    26    1
     8    27    30    1
     9    42    41    1
    10    42    43    1
    11    45    46    1
    12    30    31    1
    13    48    47    2
    14    43    44    1
    15    46    47    1
    16    46    49    1
    17    31    33   ar
    18    31    32   ar
    19    33    35   ar
    20    20    21    2
    21    20    19    1
    22    51    53   ar
    23    51    50   ar
    24    32    34   ar
    25    49    50    1
    26    35    36   ar
    27    53    55   ar
    28    50    52   ar
    29    19    18    1
    30    19    22    1
    31    34    36   ar
    32    55    54   ar
    33    52    54   ar
    34    22    23    1
    35    56    57    1
    36    23    25    1
    37    23    24    1
    38    59    58    2
    39    57    58    1
    40    57    60    1
    41    61    60    1
    42    61    62    1
    43    61    63    1
    44    90    88    1
    45    86    87    2
    46    86    85    1
    47    85    88    1
    48    85    84    1
    49    88    89    1
    50    73    74   ar
    51    73    71   ar
    52    74    72   ar
    53    71    69   ar
    54    83    81   ar
    55    72    70   ar
    56    17    16    1
    57    81    80    1
    58    81    82   ar
    59    80    79    1
    60    69    70   ar
    61    69    68    1
    62    16    15    1
    63    77    78    2
    64    77    76    1
    65    68    65    1
    66    15    14    1
    67    64    65    1
    68    79    76    1
    69    76    75    1
    70    65    66    1
    71     9     7   am
    72    14    11    1
    73     8     7    2
    74     7     6    1
    75    66    67    2
    76    11    12    1
    77    11    10    1
    78    12    13    2
    79     6     5    1
    80     5     2    1
    81     2     3    1
    82     2     1    1
    83     3     4    2
