@<TRIPOS>MOLECULE
tmp/2za1B00.pdb
 190 177 0 0 0
SMALL
GASTEIGER

@<TRIPOS>ATOM
      1  N         39.4590   12.3170    5.9260 N.3    21  GLY21      -0.1225
      2  CA        38.3030   13.1530    6.1590 C.3    21  GLY21       0.1811
      3  C         37.0840   12.4500    5.6160 C.2    21  GLY21       0.2280
      4  O         37.0750   12.0210    4.4680 O.2    21  GLY21      -0.2866
      5  N         33.5650   13.3650    4.8680 N.3    23  ASP23      -0.1239
      6  CA        32.5140   14.3670    4.6390 C.3    23  ASP23       0.1674
      7  C         31.6060   13.9660    3.5020 C.2    23  ASP23       0.2266
      8  O         31.6500   14.5550    2.4200 O.2    23  ASP23      -0.2867
      9  CB        33.1170   15.7190    4.2920 C.3    23  ASP23       0.1410
     10  CG        33.9420   16.2890    5.4040 C.2    23  ASP23       0.3668
     11  OD1       34.4200   17.4120    5.2220 O.co2  23  ASP23      -0.2456
     12  OD2       34.1220   15.6300    6.4480 O.co2  23  ASP23      -0.2456
     13  N         38.4700   12.3060   10.7780 N.3    99  LYS99      -0.1245
     14  CA        37.8990   13.6010   11.0890 C.3    99  LYS99       0.1561
     15  C         36.5590   13.7920   10.4010 C.2    99  LYS99       0.2260
     16  O         36.4880   13.8140    9.1780 O.2    99  LYS99      -0.2867
     17  CB        38.8530   14.7150   10.6550 C.3    99  LYS99       0.0271
     18  CG        38.3950   16.0980   11.0800 C.3    99  LYS99       0.0035
     19  CD        39.3910   17.1630   10.6850 C.3    99  LYS99       0.0206
     20  CE        39.3090   17.5230    9.2020 C.3    99  LYS99       0.1093
     21  NZ        38.0360   18.2040    8.8400 N.3    99  LYS99      -0.1314
     22  N         33.2330   16.1870    9.7140 N.3   101  ASN101     -0.1240
     23  CA        32.7200   17.5520    9.7910 C.3   101  ASN101      0.1653
     24  C         31.2190   17.5220   10.0160 C.2   101  ASN101      0.2266
     25  O         30.4580   17.1470    9.1340 O.2   101  ASN101     -0.2867
     26  CB        33.0240   18.3250    8.5100 C.3   101  ASN101      0.1155
     27  CG        32.5210   19.7640    8.5590 C.2   101  ASN101      0.2627
     28  OD1       31.3890   20.0310    8.9670 O.2   101  ASN101     -0.2716
     29  ND2       33.3550   20.6910    8.1290 N.am  101  ASN101     -0.0877
     30  N         28.0690   18.2350    7.3720 N.3   104  PHE104     -0.1241
     31  CA        27.4700   17.3100    6.4130 C.3   104  PHE104      0.1605
     32  C         26.4610   16.3410    7.0060 C.2   104  PHE104      0.2264
     33  O         25.8530   15.5710    6.2750 O.2   104  PHE104     -0.2867
     34  CB        28.5450   16.4740    5.7170 C.3   104  PHE104      0.0534
     35  CG        29.5160   17.2620    4.8990 C.ar  104  PHE104     -0.0203
     36  CD1       29.5060   17.1700    3.5180 C.ar  104  PHE104     -0.0042
     37  CD2       30.4780   18.0590    5.5120 C.ar  104  PHE104     -0.0042
     38  CE1       30.4490   17.8600    2.7520 C.ar  104  PHE104     -0.0003
     39  CE2       31.4230   18.7520    4.7580 C.ar  104  PHE104     -0.0003
     40  CZ        31.4110   18.6530    3.3790 C.ar  104  PHE104     -0.0000
     41  N         35.0300   17.9670   13.5280 N.3   133  ASP133     -0.1239
     42  CA        35.2780   19.3530   13.1150 C.3   133  ASP133      0.1674
     43  C         33.9500   20.0740   13.0090 C.2   133  ASP133      0.2266
     44  O         33.1910   19.8800   12.0690 O.2   133  ASP133     -0.2867
     45  CB        36.0220   19.4240   11.7820 C.3   133  ASP133      0.1410
     46  CG        36.2020   20.8560   11.2860 C.2   133  ASP133      0.3668
     47  OD1       36.6110   21.7500   12.0530 O.co2 133  ASP133     -0.2456
     48  OD2       35.9420   21.1000   10.1060 O.co2 133  ASP133     -0.2456
     49  N         34.0240   23.3910   14.6950 N.3   135  LYS135     -0.1245
     50  CA        34.5000   24.7290   15.0650 C.3   135  LYS135      0.1561
     51  C         33.4450   25.5400   15.7630 C.2   135  LYS135      0.2260
     52  O         32.9670   26.5570   15.2720 O.2   135  LYS135     -0.2867
     53  CB        35.0550   25.5000   13.8680 C.3   135  LYS135      0.0271
     54  CG        34.4960   25.1350   12.5340 C.3   135  LYS135      0.0035
     55  CD        35.5340   25.4600   11.4830 C.3   135  LYS135      0.0206
     56  CE        35.0700   25.0220   10.1270 C.3   135  LYS135      0.1093
     57  NZ        34.5200   23.6350   10.2220 N.3   135  LYS135     -0.1314
     58  N         37.3280   20.8100   16.7040 N.3   160  THR160     -0.1218
     59  CA        37.8660   22.1090   16.3110 C.3   160  THR160      0.1862
     60  C         36.9990   23.2130   16.8970 C.2   160  THR160      0.2287
     61  O         35.7960   23.0300   17.0750 O.2   160  THR160     -0.2866
     62  CB        37.8590   22.2830   14.8020 C.3   160  THR160      0.1770
     63  OG1       36.5090   22.2530   14.3310 O.3   160  THR160     -0.2211
     64  CG2       38.6510   21.1900   14.1480 C.3   160  THR160      0.0375
     65  N         41.0310   27.4460   15.3500 N.3   188  LEU188     -0.1245
     66  CA        41.2370   27.9050   13.9860 C.3   188  LEU188      0.1561
     67  C         42.2720   29.0110   13.9810 C.2   188  LEU188      0.2260
     68  O         42.0310   30.0870   14.5040 O.2   188  LEU188     -0.2867
     69  CB        39.9270   28.4310   13.4040 C.3   188  LEU188      0.0270
     70  CG        38.9380   27.3730   12.9120 C.3   188  LEU188      0.0019
     71  CD1       38.9470   26.1670   13.8490 C.3   188  LEU188      0.0001
     72  CD2       37.5460   27.9890   12.8010 C.3   188  LEU188      0.0001
     73  N         44.7870   29.5630   10.9140 N.3   190  LYS190     -0.1231
     74  CA        44.8730   30.0340    9.5370 C.3   190  LYS190      0.1693
     75  C         44.0450   29.0500    8.6820 C.2   190  LYS190      0.2593
     76  O         44.4300   27.8910    8.5360 O.2   190  LYS190     -0.2718
     77  CB        46.3590   30.0470    9.1200 C.3   190  LYS190      0.0285
     78  CG        46.6690   30.7740    7.8290 C.3   190  LYS190      0.0035
     79  CD        46.4500   32.2770    7.9440 C.3   190  LYS190      0.0206
     80  CE        45.8650   32.8210    6.6460 C.3   190  LYS190      0.1093
     81  NZ        46.6390   32.3940    5.4460 N.3   190  LYS190     -0.1314
     82  N         42.9140   29.4960    8.1290 N.am  191  THR191     -0.1939
     83  CA        42.0590   28.6050    7.3350 C.3   191  THR191      0.2028
     84  C         42.3780   28.5480    5.8370 C.2   191  THR191      0.2643
     85  O         43.0010   29.4560    5.3020 O.2   191  THR191     -0.2714
     86  CB        40.5690   28.9470    7.5130 C.3   191  THR191      0.1808
     87  OG1       40.3390   30.3050    7.1350 O.3   191  THR191     -0.2208
     88  CG2       40.1430   28.7430    8.9500 C.3   191  THR191      0.0379
     89  N         41.9110   27.4830    5.1740 N.am  192  THR192     -0.1936
     90  CA        42.1680   27.2060    3.7530 C.3   192  THR192      0.2028
     91  C         41.3580   27.8360    2.6190 C.2   192  THR192      0.2642
     92  O         41.3670   27.3040    1.5060 O.2   192  THR192     -0.2714
     93  CB        42.1090   25.6920    3.4650 C.3   192  THR192      0.1808
     94  OG1       40.7910   25.2090    3.7560 O.3   192  THR192     -0.2208
     95  CG2       43.1430   24.9310    4.2860 C.3   192  THR192      0.0379
     96  N         40.6600   28.9360    2.8510 N.am  193  ASN193     -0.1971
     97  CA        39.8960   29.5490    1.7630 C.3   193  ASN193      0.1688
     98  C         40.6590   30.7720    1.2810 C.2   193  ASN193      0.2292
     99  O         41.2960   31.4370    2.0600 O.2   193  ASN193     -0.2864
    100  CB        38.5050   29.9420    2.2500 C.3   193  ASN193      0.1181
    101  CG        38.5550   30.8770    3.4200 C.2   193  ASN193      0.2629
    102  OD1       38.4590   32.0810    3.2550 O.2   193  ASN193     -0.2716
    103  ND2       38.7220   30.3280    4.6160 N.am  193  ASN193     -0.0877
    104  N         44.6070   24.7880   13.7400 N.3   237  VAL237     -0.1245
    105  CA        44.1160   24.3840   12.4330 C.3   237  VAL237      0.1561
    106  C         44.8530   25.3020   11.4680 C.2   237  VAL237      0.2260
    107  O         44.5230   26.4810   11.3250 O.2   237  VAL237     -0.2867
    108  CB        42.5940   24.6010   12.3010 C.3   237  VAL237      0.0252
    109  CG1       42.1270   24.1880   10.9170 C.3   237  VAL237      0.0019
    110  CG2       41.8580   23.7900   13.3650 C.3   237  VAL237      0.0019
    111  N         46.0100   25.6500    7.5900 N.3   239  GLY239     -0.1225
    112  CA        45.8740   25.2000    6.2150 C.3   239  GLY239      0.1811
    113  C         47.1150   24.7070    5.4890 C.2   239  GLY239      0.2280
    114  O         48.2370   25.1420    5.7500 O.2   239  GLY239     -0.2866
    115  N         46.7040   20.4020   12.9710 N.3   259  LEU259     -0.1245
    116  CA        45.7260   19.7160   12.1570 C.3   259  LEU259      0.1561
    117  C         45.6910   20.5510   10.9070 C.2   259  LEU259      0.2260
    118  O         45.2040   21.6800   10.9350 O.2   259  LEU259     -0.2867
    119  CB        44.3670   19.7480   12.8420 C.3   259  LEU259      0.0270
    120  CG        43.1520   19.3730   12.0000 C.3   259  LEU259      0.0019
    121  CD1       43.2580   17.9360   11.5100 C.3   259  LEU259      0.0001
    122  CD2       41.9180   19.5680   12.8520 C.3   259  LEU259      0.0001
    123  N         44.4680   20.7220    6.8880 N.3   261  PRO261     -0.2102
    124  CA        43.6380   20.2580    5.7680 C.3   261  PRO261      0.1504
    125  C         43.9310   21.0900    4.5140 C.2   261  PRO261      0.2576
    126  O         44.6070   22.1070    4.5920 O.2   261  PRO261     -0.2718
    127  CB        42.2280   20.4910    6.2830 C.3   261  PRO261      0.0282
    128  CG        42.3670   21.8010    6.9490 C.3   261  PRO261      0.0208
    129  CD        43.7350   21.7460    7.6590 C.3   261  PRO261      0.0893
    130  N         43.4190   20.6650    3.3660 N.am  262  GLY262     -0.1943
    131  CA        43.6580   21.4240    2.1550 C.3   262  GLY262      0.2014
    132  C         44.3710   20.6650    1.0530 C.2   262  GLY262      0.2639
    133  O         44.3330   21.0880   -0.1050 O.2   262  GLY262     -0.2714
    134  N         45.0330   19.5630    1.4050 N.am  263  ILE263     -0.1963
    135  CA        45.7340   18.7310    0.4240 C.3   263  ILE263      0.1727
    136  C         44.7080   17.8170   -0.2560 C.2   263  ILE263      0.2617
    137  O         43.6360   17.5750    0.2910 O.2   263  ILE263     -0.2715
    138  CB        46.8280   17.8470    1.1010 C.3   263  ILE263      0.0290
    139  CG1       47.9150   18.7330    1.7110 C.3   263  ILE263      0.0022
    140  CG2       47.4630   16.9070    0.0730 C.3   263  ILE263      0.0023
    141  CD1       48.7760   19.4470    0.6860 C.3   263  ILE263      0.0001
    142  N         45.0360   17.3090   -1.4370 N.am  264  GLY264     -0.1940
    143  CA        44.1050   16.4410   -2.1320 C.3   264  GLY264      0.2014
    144  C         42.7600   17.1320   -2.1760 C.2   264  GLY264      0.2639
    145  O         41.9420   16.9960   -1.2430 O.2   264  GLY264     -0.2714
    146  N         42.5360   17.8490   -3.2770 N.am  265  ALA265     -0.1963
    147  CA        41.3330   18.6480   -3.5020 C.3   265  ALA265      0.1728
    148  C         41.7210   19.9410   -2.8240 C.2   265  ALA265      0.2616
    149  O         42.7470   19.9760   -2.1270 O.2   265  ALA265     -0.2715
    150  CB        40.0990   18.0350   -2.8270 C.3   265  ALA265      0.0334
    151  N         40.9350   21.0000   -3.0270 N.am  266  GLN266     -0.1977
    152  CA        41.2430   22.2970   -2.4210 C.3   266  GLN266      0.1601
    153  C         42.6440   22.6970   -2.8960 C.2   266  GLN266      0.2287
    154  O         43.2320   23.6810   -2.4270 O.2   266  GLN266     -0.2864
    155  CB        41.1890   22.1810   -0.8900 C.3   266  GLN266      0.0394
    156  CG        41.4810   23.4550   -0.0990 C.3   266  GLN266      0.0908
    157  CD        40.3670   23.8040    0.8870 C.2   266  GLN266      0.2608
    158  OE1       39.8690   22.9440    1.6230 O.2   266  GLN266     -0.2717
    159  NE2       39.9710   25.0770    0.8990 N.am  266  GLN266     -0.0878
    160  N         44.9970   16.2210    6.6640 N.3   288  ASN288     -0.1225
    161  CA        43.6530   15.7530    6.3530 C.3   288  ASN288      0.1785
    162  C         43.3800   15.7810    4.8650 C.2   288  ASN288      0.2597
    163  O         43.6240   16.7820    4.1990 O.2   288  ASN288     -0.2718
    164  CB        42.5800   16.5950    7.0510 C.3   288  ASN288      0.1169
    165  CG        41.1470   16.1240    6.7250 C.2   288  ASN288      0.2627
    166  OD1       40.5390   16.5300    5.7280 O.2   288  ASN288     -0.2716
    167  ND2       40.6180   15.2580    7.5710 N.am  288  ASN288     -0.0877
    168  N         42.8850   14.6590    4.3580 N.am  289  ILE289     -0.1966
    169  CA        42.5120   14.5280    2.9680 C.3   289  ILE289      0.1727
    170  C         41.1450   13.8600    2.9960 C.2   289  ILE289      0.2617
    171  O         41.0070   12.7160    3.4300 O.2   289  ILE289     -0.2715
    172  CB        43.5220   13.6720    2.1780 C.3   289  ILE289      0.0290
    173  CG1       44.7530   14.5140    1.8310 C.3   289  ILE289      0.0022
    174  CG2       42.8960   13.1640    0.8930 C.3   289  ILE289      0.0023
    175  CD1       45.9620   14.2080    2.6550 C.3   289  ILE289      0.0001
    176  N         40.1250   14.5950    2.5660 N.am  290  GLY290     -0.1940
    177  CA        38.7800   14.0520    2.5550 C.3   290  GLY290      0.2014
    178  C         38.3440   13.6210    1.1750 C.2   290  GLY290      0.2638
    179  O         38.5020   12.4620    0.8090 O.2   290  GLY290     -0.2714
    180  N         37.8000   14.5480    0.3990 N.am  291  ARG291     -0.1977
    181  CA        37.3350   14.2400   -0.9500 C.3   291  ARG291      0.1597
    182  C         38.3020   13.4420   -1.8320 C.2   291  ARG291      0.2287
    183  O         37.8880   12.5090   -2.5220 O.2   291  ARG291     -0.2864
    184  CB        36.9190   15.5300   -1.6490 C.3   291  ARG291      0.0334
    185  CG        35.5420   16.0100   -1.2220 C.3   291  ARG291      0.0492
    186  CD        35.3130   17.4470   -1.6440 C.3   291  ARG291      0.2205
    187  NE        36.1290   18.3610   -0.8510 N.pl3 291  ARG291     -0.0865
    188  CZ        36.1430   19.6810   -1.0040 C.cat 291  ARG291      0.5346
    189  NH1       35.3820   20.2530   -1.9330 N.pl3 291  ARG291      0.1354
    190  NH2       36.9010   20.4330   -0.2110 N.pl3 291  ARG291      0.1354
@<TRIPOS>BOND
     1   147   146    1
     2   147   150    1
     3   147   148    1
     4   146   144   am
     5   151   148   am
     6   151   152    1
     7   153   154    2
     8   153   152    1
     9   148   149    2
    10   183   182    2
    11   152   155    1
    12   144   143    1
    13   144   145    2
    14   143   142    1
    15   189   188    1
    16   182   181    1
    17   184   185    1
    18   184   181    1
    19   186   185    1
    20   186   187    1
    21   142   136   am
    22   188   187    2
    23   188   190    1
    24   181   180    1
    25   155   156    1
    26   136   137    2
    27   136   135    1
    28   133   132    2
    29   156   157    1
    30   140   138    1
    31   180   178   am
    32   135   138    1
    33   135   134    1
    34   141   139    1
    35   179   178    2
    36   157   159   am
    37   157   158    2
    38   174   172    1
    39   132   134   am
    40   132   131    1
    41   138   139    1
    42   178   177    1
    43    98    97    1
    44    98    99    2
    45    92    91    2
    46    97   100    1
    47    97    96    1
    48   173   172    1
    49   173   175    1
    50   131   130    1
    51   172   169    1
    52   100   101    1
    53     8     7    2
    54   177   176    1
    55   176   170   am
    56    91    96   am
    57    91    90    1
    58    38    40   ar
    59    38    36   ar
    60   169   170    1
    61   169   168    1
    62   170   171    2
    63   102   101    2
    64   130   125   am
    65    40    39   ar
    66   101   103   am
    67    93    90    1
    68    93    94    1
    69    93    95    1
    70     7     6    1
    71    36    35   ar
    72    90    89    1
    73   163   162    2
    74     9     6    1
    75     9    10    1
    76   168   162   am
    77     4     3    2
    78   125   126    2
    79   125   124    1
    80     6     5    1
    81    39    37   ar
    82   162   161    1
    83    35    37   ar
    84    35    34    1
    85    89    84   am
    86    11    10   ar
    87    85    84    2
    88    10    12   ar
    89    81    80    1
    90   113   114    2
    91   113   112    1
    92     3     2    1
    93    34    31    1
    94   166   165    2
    95   124   127    1
    96   124   123    1
    97    84    83    1
    98     1     2    1
    99   112   111    1
   100    33    32    2
   101   127   128    1
   102   161   160    1
   103   161   164    1
   104    31    32    1
   105    31    30    1
   106    80    79    1
   107   165   164    1
   108   165   167   am
   109   123   129    1
   110   128   129    1
   111    87    86    1
   112    83    86    1
   113    83    82    1
   114    86    88    1
   115    78    79    1
   116    78    77    1
   117    82    75   am
   118    29    27   am
   119    26    27    1
   120    26    23    1
   121    76    75    2
   122    27    28    2
   123    75    74    1
   124    21    20    1
   125    77    74    1
   126    25    24    2
   127    16    15    2
   128    20    19    1
   129    74    73    1
   130    22    23    1
   131    23    24    1
   132    48    46   ar
   133    56    57    1
   134    56    55    1
   135    15    14    1
   136    17    18    1
   137    17    14    1
   138    19    18    1
   139    13    14    1
   140   117   118    2
   141   117   116    1
   142   109   108    1
   143    46    45    1
   144    46    47   ar
   145   107   106    2
   146   106   105    1
   147    55    54    1
   148   121   120    1
   149    45    42    1
   150   120   119    1
   151   120   122    1
   152    44    43    2
   153   116   119    1
   154   116   115    1
   155   108   105    1
   156   108   110    1
   157   105   104    1
   158    54    53    1
   159    72    70    1
   160    70    69    1
   161    70    71    1
   162    43    42    1
   163    42    41    1
   164    69    66    1
   165    53    50    1
   166    67    66    1
   167    67    68    2
   168    66    65    1
   169    64    62    1
   170    63    62    1
   171    49    50    1
   172    62    59    1
   173    50    51    1
   174    52    51    2
   175    59    58    1
   176    59    60    1
   177    60    61    2
