@<TRIPOS>MOLECULE
tmp/2zacA00.pdb
 208 195 0 0 0
SMALL
GASTEIGER

@<TRIPOS>ATOM
      1  N         -4.0770   -1.8280   17.4520 N.3    15  LYS15      -0.1245
      2  CA        -3.5120   -1.3040   18.6990 C.3    15  LYS15       0.1561
      3  C         -2.8520    0.0370   18.3950 C.2    15  LYS15       0.2260
      4  O         -2.5380    0.3340   17.2380 O.2    15  LYS15      -0.2867
      5  CB        -2.5150   -2.2820   19.3470 C.3    15  LYS15       0.0271
      6  CG        -1.2330   -2.5100   18.5520 C.3    15  LYS15       0.0035
      7  CD        -0.1910   -3.2440   19.3930 C.3    15  LYS15       0.0206
      8  CE         1.0230   -3.5860   18.5640 C.3    15  LYS15       0.1093
      9  NZ         2.0710   -4.2360   19.3950 N.3    15  LYS15      -0.1314
     10  N          0.2630    2.6990   19.0510 N.3    17  GLN17      -0.1245
     11  CA         1.6500    2.8830   19.4840 C.3    17  GLN17       0.1566
     12  C          1.9070    4.3720   19.6820 C.2    17  GLN17       0.2260
     13  O          1.5820    5.1820   18.8140 O.2    17  GLN17      -0.2867
     14  CB         2.5880    2.2970   18.4310 C.3    17  GLN17       0.0367
     15  CG         2.3590    0.8000   18.2190 C.3    17  GLN17       0.0905
     16  CD         3.3430    0.1720   17.2620 C.2    17  GLN17       0.2608
     17  OE1        3.5600    0.6750   16.1680 O.2    17  GLN17      -0.2717
     18  NE2        3.9320   -0.9430   17.6680 N.am   17  GLN17      -0.0878
     19  N          7.2460    4.6620   24.9390 N.3    23  THR23      -0.1218
     20  CA         6.5420    4.1460   23.7440 C.3    23  THR23       0.1862
     21  C          5.4370    3.1600   24.1010 C.2    23  THR23       0.2287
     22  O          5.4230    2.0050   23.6480 O.2    23  THR23      -0.2866
     23  CB         7.5060    3.5590   22.6780 C.3    23  THR23       0.1770
     24  OG1        8.2550    2.4680   23.2300 O.3    23  THR23      -0.2211
     25  CG2        8.4520    4.6240   22.1840 C.3    23  THR23       0.0375
     26  N          1.8610    1.2930   24.4930 N.3    25  GLU25      -0.1245
     27  CA         0.8820    0.7830   23.5400 C.3    25  GLU25       0.1567
     28  C         -0.4680    0.6300   24.2170 C.2    25  GLU25       0.2260
     29  O         -0.5470    0.2130   25.3740 O.2    25  GLU25      -0.2867
     30  CB         1.3360   -0.5420   22.9410 C.3    25  GLU25       0.0388
     31  CG         2.6730   -0.4140   22.2380 C.3    25  GLU25       0.1160
     32  CD         3.0500   -1.6130   21.3950 C.2    25  GLU25       0.3649
     33  OE1        2.4950   -2.7160   21.6000 O.co2  25  GLU25      -0.2457
     34  OE2        3.9270   -1.4350   20.5270 O.co2  25  GLU25      -0.2457
     35  N         10.5260    3.5910   18.8130 N.3    59  THR59      -0.1203
     36  CA        10.5880    2.1300   18.8900 C.3    59  THR59       0.1994
     37  C         12.0210    1.6350   18.6430 C.2    59  THR59       0.2618
     38  O         12.8930    2.3980   18.1990 O.2    59  THR59      -0.2717
     39  CB         9.6040    1.4690   17.9080 C.3    59  THR59       0.1784
     40  OG1        9.8800    1.9230   16.5810 O.3    59  THR59      -0.2211
     41  CG2        8.1520    1.8010   18.2900 C.3    59  THR59       0.0376
     42  N         12.2500    0.3550   18.9310 N.am   60  ALA60      -0.1965
     43  CA        13.6000   -0.2310   18.9300 C.3    60  ALA60       0.1728
     44  C         14.3810   -0.0670   17.6270 C.2    60  ALA60       0.2616
     45  O         15.6150    0.0120   17.6600 O.2    60  ALA60      -0.2715
     46  CB        13.5350   -1.7170   19.3210 C.3    60  ALA60       0.0334
     47  N         13.6780   -0.0450   16.4930 N.am   61  ASN61      -0.1958
     48  CA        14.3280    0.0030   15.1780 C.3    61  ASN61       0.1819
     49  C         13.9440    1.2280   14.3430 C.2    61  ASN61       0.2622
     50  O         14.0570    1.2250   13.1150 O.2    61  ASN61      -0.2715
     51  CB        14.0880   -1.3000   14.4110 C.3    61  ASN61       0.1195
     52  CG        14.7130   -2.4940   15.1060 C.2    61  ASN61       0.2630
     53  OD1       15.9470   -2.6300   15.1570 O.2    61  ASN61      -0.2716
     54  ND2       13.8740   -3.3540   15.6660 N.am   61  ASN61      -0.0877
     55  N         13.5000    2.2820   15.0230 N.am   62  SER62      -0.1950
     56  CA        13.2790    3.5630   14.3550 C.3    62  SER62       0.1924
     57  C         13.9630    4.7100   15.0890 C.2    62  SER62       0.2314
     58  O         14.0740    4.6870   16.3190 O.2    62  SER62      -0.2863
     59  CB        11.7870    3.8680   14.2170 C.3    62  SER62       0.2116
     60  OG        11.6180    5.0820   13.5120 O.3    62  SER62      -0.2180
     61  N         12.5660    7.6200   14.7850 N.3    64  TYR64      -0.1241
     62  CA        11.4780    8.5850   14.7330 C.3    64  TYR64       0.1605
     63  C         10.2740    8.1950   15.5940 C.2    64  TYR64       0.2264
     64  O          9.9160    7.0180   15.6820 O.2    64  TYR64      -0.2867
     65  CB        11.0170    8.7550   13.2880 C.3    64  TYR64       0.0534
     66  CG        12.0740    9.2570   12.3300 C.ar   64  TYR64      -0.0201
     67  CD1       12.6800   10.4970   12.5180 C.ar   64  TYR64      -0.0009
     68  CD2       12.4340    8.5080   11.2100 C.ar   64  TYR64      -0.0009
     69  CE1       13.6420   10.9730   11.6240 C.ar   64  TYR64       0.0417
     70  CE2       13.3850    8.9790   10.3110 C.ar   64  TYR64       0.0417
     71  CZ        13.9790   10.2080   10.5310 C.ar   64  TYR64       0.1957
     72  OH        14.9230   10.6880    9.6430 O.3    64  TYR64      -0.2866
     73  N          6.1920    8.1520   16.9070 N.3    66  ARG66      -0.1245
     74  CA         4.9000    7.9580   16.2450 C.3    66  ARG66       0.1563
     75  C          3.7360    7.9710   17.2220 C.2    66  ARG66       0.2260
     76  O          3.8690    7.5870   18.3900 O.2    66  ARG66      -0.2867
     77  CB         4.8940    6.6280   15.5030 C.3    66  ARG66       0.0307
     78  CG         4.7570    5.4250   16.4050 C.3    66  ARG66       0.0489
     79  CD         5.0480    4.1680   15.6330 C.3    66  ARG66       0.2205
     80  NE         6.4730    3.9150   15.4640 N.pl3  66  ARG66      -0.0865
     81  CZ         7.0290    3.5070   14.3260 C.cat  66  ARG66       0.5346
     82  NH1        6.2980    3.3690   13.2160 N.pl3  66  ARG66       0.1354
     83  NH2        8.3290    3.2430   14.2870 N.pl3  66  ARG66       0.1354
     84  N         -1.5220    0.1540   14.6450 N.3    70  ARG70      -0.1245
     85  CA        -0.8430   -1.0490   14.1670 C.3    70  ARG70       0.1563
     86  C         -1.9050   -2.1460   14.0660 C.2    70  ARG70       0.2260
     87  O         -2.5510   -2.4850   15.0620 O.2    70  ARG70      -0.2867
     88  CB         0.2520   -1.4320   15.1750 C.3    70  ARG70       0.0307
     89  CG         1.2440   -2.5330   14.7630 C.3    70  ARG70       0.0489
     90  CD         0.6930   -3.9480   14.7270 C.3    70  ARG70       0.2205
     91  NE         1.7910   -4.9040   14.8780 N.pl3  70  ARG70      -0.0865
     92  CZ         1.7590   -6.1810   14.5140 C.cat  70  ARG70       0.5346
     93  NH1        0.6750   -6.7060   13.9430 N.pl3  70  ARG70       0.1354
     94  NH2        2.8410   -6.9300   14.7160 N.pl3  70  ARG70       0.1354
     95  N          0.2250  -10.2220   18.4410 N.3    78  SER78      -0.1217
     96  CA         0.7660   -9.4170   17.3400 C.3    78  SER78       0.1889
     97  C          1.5770  -10.2300   16.3310 C.2    78  SER78       0.2288
     98  O          1.9800   -9.7000   15.3010 O.2    78  SER78      -0.2866
     99  CB         1.6300   -8.2870   17.8930 C.3    78  SER78       0.2089
    100  OG         2.7510   -8.8110   18.5760 O.3    78  SER78      -0.2183
    101  N          0.9010    2.8580    6.2280 N.3   109  GLN109     -0.1245
    102  CA         1.9120    1.8980    5.8040 C.3   109  GLN109      0.1566
    103  C          1.3520    0.4990    5.6120 C.2   109  GLN109      0.2260
    104  O          0.2910    0.1520    6.1480 O.2   109  GLN109     -0.2867
    105  CB         3.0240    1.7830    6.8490 C.3   109  GLN109      0.0367
    106  CG         3.5430    3.0890    7.4550 C.3   109  GLN109      0.0905
    107  CD         4.8080    2.8660    8.2550 C.2   109  GLN109      0.2608
    108  OE1        5.7790    2.2970    7.7400 O.2   109  GLN109     -0.2717
    109  NE2        4.8050    3.2820    9.5270 N.am  109  GLN109     -0.0878
    110  N          3.5790   -2.7560    6.7050 N.3   111  HIS111     -0.1241
    111  CA         4.8580   -3.0990    7.3000 C.3   111  HIS111      0.1621
    112  C          5.0790   -4.6000    7.2050 C.2   111  HIS111      0.2264
    113  O          4.1750   -5.3800    7.4770 O.2   111  HIS111     -0.2867
    114  CB         4.9140   -2.6500    8.7660 C.3   111  HIS111      0.0745
    115  CG         6.3000   -2.3610    9.2550 C.ar  111  HIS111      0.0817
    116  ND1        7.2530   -3.3430    9.4230 N.ar  111  HIS111     -0.2268
    117  CD2        6.8940   -1.1950    9.6030 C.ar  111  HIS111      0.1154
    118  CE1        8.3710   -2.7940    9.8690 C.ar  111  HIS111      0.1986
    119  NE2        8.1840   -1.4920    9.9760 N.ar  111  HIS111     -0.2212
    120  N          6.8910   -8.1800    8.4340 N.3   113  ILE113     -0.1245
    121  CA         7.2350   -8.7800    9.7190 C.3   113  ILE113      0.1561
    122  C          7.6200  -10.2230    9.4600 C.2   113  ILE113      0.2260
    123  O          7.0910  -10.8610    8.5540 O.2   113  ILE113     -0.2867
    124  CB         6.0560   -8.6720   10.7480 C.3   113  ILE113      0.0252
    125  CG1        6.5020   -9.1070   12.1500 C.3   113  ILE113      0.0019
    126  CG2        4.8090   -9.4250   10.2530 C.3   113  ILE113      0.0019
    127  CD1        5.5460   -8.6690   13.2430 C.3   113  ILE113      0.0001
    128  N          7.5410  -12.8310   14.4190 N.3   117  GLY117     -0.1225
    129  CA         7.2380  -11.5520   15.0620 C.3   117  GLY117      0.1811
    130  C          8.3820  -10.5500   15.0300 C.2   117  GLY117      0.2280
    131  O          8.1870   -9.3740   15.3570 O.2   117  GLY117     -0.2866
    132  N         11.1640   -7.9670   13.6130 N.3   119  ASN119     -0.1225
    133  CA        10.9900   -6.8700   12.6610 C.3   119  ASN119      0.1785
    134  C         11.4840   -7.2370   11.2570 C.2   119  ASN119      0.2597
    135  O         12.3920   -8.0590   11.0890 O.2   119  ASN119     -0.2718
    136  CB        11.6660   -5.5850   13.1670 C.3   119  ASN119      0.1169
    137  CG        11.1800   -4.3270   12.4350 C.2   119  ASN119      0.2627
    138  OD1       11.9720   -3.4470   12.1090 O.2   119  ASN119     -0.2716
    139  ND2        9.8760   -4.2400   12.1870 N.am  119  ASN119     -0.0877
    140  N         10.8390   -6.6530   10.2540 N.am  120  ALA120     -0.1966
    141  CA        11.2670   -6.7930    8.8670 C.3   120  ALA120      0.1713
    142  C         11.0000   -5.4340    8.2340 C.2   120  ALA120      0.2458
    143  O         10.4340   -4.5740    8.8930 O.2   120  ALA120     -0.2730
    144  CB        10.4860   -7.8970    8.1780 C.3   120  ALA120      0.0333
    145  N         11.4560   -5.1990    6.9880 N.am  121  PRO121     -0.2716
    146  CA        11.2780   -3.8520    6.4320 C.3   121  PRO121      0.1521
    147  C          9.8230   -3.4320    6.1800 C.2   121  PRO121      0.2440
    148  O          8.9510   -4.2840    5.9850 O.2   121  PRO121     -0.2731
    149  CB        12.0310   -3.9230    5.0970 C.3   121  PRO121      0.0310
    150  CG        12.9710   -5.0690    5.2550 C.3   121  PRO121      0.0237
    151  CD        12.2240   -6.0650    6.0770 C.3   121  PRO121      0.0939
    152  N          9.5670   -2.1140    6.1690 N.am  122  PRO122     -0.2727
    153  CA         8.2690   -1.6550    5.6950 C.3   122  PRO122      0.1402
    154  C          8.1670   -1.9500    4.2080 C.2   122  PRO122      0.2269
    155  O          9.1870   -1.9140    3.5080 O.2   122  PRO122     -0.2865
    156  CB         8.3190   -0.1450    5.9290 C.3   122  PRO122      0.0296
    157  CG         9.7590    0.1950    5.9710 C.3   122  PRO122      0.0237
    158  CD        10.4630   -0.9980    6.5270 C.3   122  PRO122      0.0939
    159  N          5.0980    2.8740    2.3370 N.3   125  LYS125     -0.1245
    160  CA         5.0430    4.0440    3.2190 C.3   125  LYS125      0.1561
    161  C          4.3990    5.2100    2.4900 C.2   125  LYS125      0.2260
    162  O          4.8870    5.6140    1.4280 O.2   125  LYS125     -0.2867
    163  CB         6.4460    4.4380    3.6770 C.3   125  LYS125      0.0271
    164  CG         7.1750    3.3410    4.4510 C.3   125  LYS125      0.0035
    165  CD         8.5930    3.7680    4.8090 C.3   125  LYS125      0.0206
    166  CE         9.4980    3.8020    3.5810 C.3   125  LYS125      0.1093
    167  NZ        10.8770    4.2560    3.9230 N.3   125  LYS125     -0.1314
    168  N          1.3510   -6.2990    8.0120 N.3   198  TYR198     -0.1241
    169  CA         0.2580   -5.6490    8.7270 C.3   198  TYR198      0.1605
    170  C          0.1710   -4.1850    8.3070 C.2   198  TYR198      0.2264
    171  O          1.1680   -3.5690    7.9260 O.2   198  TYR198     -0.2867
    172  CB         0.4140   -5.7960   10.2500 C.3   198  TYR198      0.0534
    173  CG         1.6810   -5.1990   10.8160 C.ar  198  TYR198     -0.0201
    174  CD1        1.7350   -3.8490   11.1750 C.ar  198  TYR198     -0.0009
    175  CD2        2.8270   -5.9870   11.0090 C.ar  198  TYR198     -0.0009
    176  CE1        2.9050   -3.2940   11.7100 C.ar  198  TYR198      0.0417
    177  CE2        3.9930   -5.4450   11.5420 C.ar  198  TYR198      0.0417
    178  CZ         4.0280   -4.0960   11.8880 C.ar  198  TYR198      0.1957
    179  OH         5.1860   -3.5690   12.4140 O.3   198  TYR198     -0.2866
    180  N         -0.6130   -0.1070    8.9210 N.3   200  LYS200     -0.1245
    181  CA        -0.4660    0.9360    9.9320 C.3   200  LYS200      0.1561
    182  C         -1.1250    2.2050    9.4210 C.2   200  LYS200      0.2260
    183  O         -1.1680    2.4570    8.2150 O.2   200  LYS200     -0.2867
    184  CB         1.0070    1.2440   10.1900 C.3   200  LYS200      0.0271
    185  CG         1.8580    0.0350   10.5770 C.3   200  LYS200      0.0035
    186  CD         3.1050    0.4440   11.3340 C.3   200  LYS200      0.0206
    187  CE         2.8480    0.5180   12.8370 C.3   200  LYS200      0.1093
    188  NZ         4.0030    1.1570   13.5270 N.3   200  LYS200     -0.1314
    189  N          3.5220    9.0470   11.8710 N.3   204  PHE204     -0.1241
    190  CA         4.8780    8.5700   12.1020 C.3   204  PHE204      0.1605
    191  C          5.7910    9.7080   11.6320 C.2   204  PHE204      0.2264
    192  O          5.9420    9.9630   10.4270 O.2   204  PHE204     -0.2867
    193  CB         5.0680    7.2560   11.3360 C.3   204  PHE204      0.0534
    194  CG         6.4600    6.6800   11.3760 C.ar  204  PHE204     -0.0203
    195  CD1        6.9260    5.9380   10.2950 C.ar  204  PHE204     -0.0042
    196  CD2        7.2810    6.8410   12.4920 C.ar  204  PHE204     -0.0042
    197  CE1        8.2000    5.3900   10.3070 C.ar  204  PHE204     -0.0003
    198  CE2        8.5570    6.2810   12.5140 C.ar  204  PHE204     -0.0003
    199  CZ         9.0100    5.5530   11.4170 C.ar  204  PHE204     -0.0000
    200  N          8.6590   12.0730   10.6590 N.3   206  GLN206     -0.1245
    201  CA        10.0000   11.9370   10.0890 C.3   206  GLN206      0.1566
    202  C         10.8930   13.1080   10.4810 C.2   206  GLN206      0.2260
    203  O         11.4390   13.8260    9.6450 O.2   206  GLN206     -0.2867
    204  CB         9.9290   11.7320    8.5740 C.3   206  GLN206      0.0367
    205  CG         9.0620   10.5350    8.1460 C.3   206  GLN206      0.0905
    206  CD         9.4860    9.2310    8.7980 C.2   206  GLN206      0.2608
    207  OE1       10.5050    8.6450    8.4300 O.2   206  GLN206     -0.2717
    208  NE2        8.7030    8.7670    9.7790 N.am  206  GLN206     -0.0878
@<TRIPOS>BOND
     1   162   161    2
     2   159   160    1
     3   161   160    1
     4   160   163    1
     5   155   154    2
     6   166   167    1
     7   166   165    1
     8   163   164    1
     9   154   153    1
    10   164   165    1
    11   149   150    1
    12   149   146    1
    13   150   151    1
    14   103   102    1
    15   103   104    2
    16   153   156    1
    17   153   152    1
    18   102   101    1
    19   102   105    1
    20   156   157    1
    21   157   158    1
    22   148   147    2
    23   151   145    1
    24   152   147   am
    25   152   158    1
    26   147   146    1
    27   146   145    1
    28   110   111    1
    29   105   106    1
    30   145   142   am
    31   112   111    1
    32   112   113    2
    33   111   114    1
    34   106   107    1
    35   108   107    2
    36   171   170    2
    37   168   169    1
    38   205   204    1
    39   205   206    1
    40   144   141    1
    41   183   182    2
    42   142   141    1
    43   142   143    2
    44   107   109   am
    45   170   169    1
    46   207   206    2
    47   120   121    1
    48   123   122    2
    49   204   201    1
    50   169   172    1
    51   114   115    1
    52   206   208   am
    53   141   140    1
    54   180   181    1
    55   115   116   ar
    56   115   117   ar
    57   182   181    1
    58   116   118   ar
    59   122   121    1
    60   117   119   ar
    61    72    71    1
    62   203   202    2
    63   121   124    1
    64   118   119   ar
    65   181   184    1
    66   201   202    1
    67   201   200    1
    68   184   185    1
    69   172   173    1
    70   126   124    1
    71   140   134   am
    72   195   197   ar
    73   195   194   ar
    74   197   199   ar
    75    70    71   ar
    76    70    68   ar
    77   192   191    2
    78    71    69   ar
    79   185   186    1
    80   124   125    1
    81   173   175   ar
    82   173   174   ar
    83   175   177   ar
    84   135   134    2
    85   174   176   ar
    86    68    66   ar
    87   134   133    1
    88   186   187    1
    89   193   194    1
    90   193   190    1
    91   194   196   ar
    92   199   198   ar
    93   177   178   ar
    94    69    67   ar
    95   191   190    1
    96   176   178   ar
    97   189   190    1
    98   178   179    1
    99   138   137    2
   100   125   127    1
   101   139   137   am
   102    66    67   ar
   103    66    65    1
   104   137   136    1
   105   196   198   ar
   106   133   136    1
   107   133   132    1
   108   187   188    1
   109    50    49    2
   110    82    81    1
   111    65    62    1
   112    60    59    1
   113    93    92    1
   114    86    85    1
   115    86    87    2
   116    85    84    1
   117    85    88    1
   118    59    56    1
   119    83    81    1
   120    81    80    2
   121    49    55   am
   122    49    48    1
   123    56    55    1
   124    56    57    1
   125    51    52    1
   126    51    48    1
   127   128   129    1
   128    92    94    1
   129    92    91    2
   130    90    89    1
   131    90    91    1
   132    62    61    1
   133    62    63    1
   134    89    88    1
   135   130   129    1
   136   130   131    2
   137    57    58    2
   138    52    53    2
   139    52    54   am
   140    48    47    1
   141    98    97    2
   142    80    79    1
   143    77    74    1
   144    77    78    1
   145    63    64    2
   146    79    78    1
   147    17    16    2
   148    74    73    1
   149    74    75    1
   150    97    96    1
   151    47    44   am
   152    40    39    1
   153    75    76    2
   154     4     3    2
   155    16    18   am
   156    16    15    1
   157    96    99    1
   158    96    95    1
   159     1     2    1
   160    44    45    2
   161    44    43    1
   162    99   100    1
   163    39    41    1
   164    39    36    1
   165    38    37    2
   166    15    14    1
   167     3     2    1
   168    14    11    1
   169     6     5    1
   170     6     7    1
   171     8     7    1
   172     8     9    1
   173    37    36    1
   174    37    42   am
   175     2     5    1
   176    35    36    1
   177    13    12    2
   178    43    42    1
   179    43    46    1
   180    10    11    1
   181    11    12    1
   182    34    32   ar
   183    32    33   ar
   184    32    31    1
   185    25    23    1
   186    31    30    1
   187    23    24    1
   188    23    20    1
   189    30    27    1
   190    27    28    1
   191    27    26    1
   192    22    21    2
   193    20    21    1
   194    20    19    1
   195    28    29    2
