@<TRIPOS>MOLECULE
tmp/2zadC01.pdb
 89 85 0 0 0
SMALL
GASTEIGER

@<TRIPOS>ATOM
      1  N          3.3760   49.0160   99.5270 N.3    11  LYS11      -0.1245
      2  CA         3.9770   49.2160   98.2160 C.3    11  LYS11       0.1561
      3  C          3.1780   48.4190   97.1950 C.2    11  LYS11       0.2260
      4  O          2.9830   47.2140   97.3630 O.2    11  LYS11      -0.2867
      5  CB         5.4540   48.7850   98.2220 C.3    11  LYS11       0.0271
      6  CG         6.3400   49.5510   99.2070 C.3    11  LYS11       0.0035
      7  CD         6.8910   50.8200   98.5790 C.3    11  LYS11       0.0206
      8  CE         7.7480   51.6330   99.5480 C.3    11  LYS11       0.1093
      9  NZ         9.2210   51.3880   99.4070 N.3    11  LYS11      -0.1314
     10  N          6.4010   46.4850  102.7750 N.3    33  GLU33      -0.1245
     11  CA         7.8380   46.5230  102.9230 C.3    33  GLU33       0.1567
     12  C          8.1720   46.7730  104.3750 C.2    33  GLU33       0.2260
     13  O          7.5260   47.5950  105.0340 O.2    33  GLU33      -0.2867
     14  CB         8.4300   47.6250  102.0370 C.3    33  GLU33       0.0388
     15  CG         9.9510   47.6170  101.9810 C.3    33  GLU33       0.1160
     16  CD        10.4880   48.3670  100.7830 C.2    33  GLU33       0.3649
     17  OE1       10.1990   47.9440   99.6390 O.co2  33  GLU33      -0.2457
     18  OE2       11.2030   49.3730  100.9900 O.co2  33  GLU33      -0.2457
     19  N         16.1590   45.3160  105.0880 N.3    45  TYR45      -0.1241
     20  CA        14.8690   45.3450  104.4020 C.3    45  TYR45       0.1605
     21  C         14.3180   43.9640  104.0780 C.2    45  TYR45       0.2264
     22  O         15.0510   43.0390  103.6880 O.2    45  TYR45      -0.2867
     23  CB        14.9460   46.1840  103.1180 C.3    45  TYR45       0.0534
     24  CG        15.2690   47.6370  103.3830 C.ar   45  TYR45      -0.0201
     25  CD1       14.2550   48.5810  103.5200 C.ar   45  TYR45      -0.0009
     26  CD2       16.5970   48.0590  103.4950 C.ar   45  TYR45      -0.0009
     27  CE1       14.5590   49.9240  103.7590 C.ar   45  TYR45       0.0417
     28  CE2       16.9080   49.3840  103.7640 C.ar   45  TYR45       0.0417
     29  CZ        15.8890   50.3050  103.8890 C.ar   45  TYR45       0.1957
     30  OH        16.2120   51.6260  104.1340 O.3    45  TYR45      -0.2866
     31  N         12.7900   43.5980   95.6720 N.3   291  LEU291     -0.1245
     32  CA        13.2940   43.5980   97.0500 C.3   291  LEU291      0.1561
     33  C         12.7940   42.3450   97.7670 C.2   291  LEU291      0.2260
     34  O         13.4780   41.7910   98.6330 O.2   291  LEU291     -0.2867
     35  CB        12.8520   44.8580   97.8150 C.3   291  LEU291      0.0270
     36  CG        13.4620   45.0120   99.2170 C.3   291  LEU291      0.0019
     37  CD1       13.8830   46.4550   99.5160 C.3   291  LEU291      0.0001
     38  CD2       12.4940   44.5150  100.2620 C.3   291  LEU291      0.0001
     39  N         11.9150   49.7180   89.2160 N.3   320  VAL320     -0.1231
     40  CA        13.2930   50.0770   89.5390 C.3   320  VAL320      0.1692
     41  C         13.8320   48.8820   90.3110 C.2   320  VAL320      0.2592
     42  O         13.1870   48.4270   91.2570 O.2   320  VAL320     -0.2718
     43  CB        13.3420   51.3310   90.4500 C.3   320  VAL320      0.0266
     44  CG1       14.7380   51.5550   91.0260 C.3   320  VAL320      0.0020
     45  CG2       12.8610   52.5640   89.6980 C.3   320  VAL320      0.0020
     46  N         14.9970   48.3690   89.9160 N.am  321  PHE321     -0.1962
     47  CA        15.5200   47.1470   90.5400 C.3   321  PHE321      0.1771
     48  C         16.0260   47.4060   91.9410 C.2   321  PHE321      0.2619
     49  O         16.8890   48.2720   92.1600 O.2   321  PHE321     -0.2715
     50  CB        16.6170   46.5080   89.6880 C.3   321  PHE321      0.0574
     51  CG        17.1010   45.1890   90.2270 C.ar  321  PHE321     -0.0200
     52  CD1       16.3330   44.0350   90.0620 C.ar  321  PHE321     -0.0042
     53  CD2       18.3170   45.1100   90.9040 C.ar  321  PHE321     -0.0042
     54  CE1       16.7810   42.8050   90.5570 C.ar  321  PHE321     -0.0003
     55  CE2       18.7800   43.8840   91.4080 C.ar  321  PHE321     -0.0003
     56  CZ        18.0000   42.7300   91.2340 C.ar  321  PHE321     -0.0000
     57  N         15.4920   46.6390   92.8990 N.am  322  ARG322     -0.1963
     58  CA        15.8060   46.8450   94.3000 C.3   322  ARG322      0.1729
     59  C         16.2780   45.5800   95.0170 C.2   322  ARG322      0.2617
     60  O         16.2180   45.4810   96.2450 O.2   322  ARG322     -0.2715
     61  CB        14.6240   47.5020   95.0110 C.3   322  ARG322      0.0348
     62  CG        14.2930   48.8770   94.4180 C.3   322  ARG322      0.0492
     63  CD        13.0060   49.4240   94.9890 C.3   322  ARG322      0.2205
     64  NE        13.1580   49.8620   96.3630 N.pl3 322  ARG322     -0.0865
     65  CZ        12.4130   49.4310   97.3800 C.cat 322  ARG322      0.5346
     66  NH1       11.4500   48.5240   97.1920 N.pl3 322  ARG322      0.1354
     67  NH2       12.6300   49.9170   98.5890 N.pl3 322  ARG322      0.1354
     68  N         16.7640   44.6210   94.2390 N.am  323  GLY323     -0.1940
     69  CA        17.3840   43.4300   94.7960 C.3   323  GLY323      0.2014
     70  C         18.8510   43.6580   95.1240 C.2   323  GLY323      0.2638
     71  O         19.4830   44.6090   94.6310 O.2   323  GLY323     -0.2714
     72  N         19.3950   42.7760   95.9510 N.am  324  LYS324     -0.1977
     73  CA        20.8250   42.7290   96.2300 C.3   324  LYS324      0.1596
     74  C         21.3880   41.4380   95.6350 C.2   324  LYS324      0.2287
     75  O         21.9890   40.6170   96.3200 O.2   324  LYS324     -0.2864
     76  CB        21.1150   42.8260   97.7350 C.3   324  LYS324      0.0298
     77  CG        20.6640   44.1310   98.3730 C.3   324  LYS324      0.0038
     78  CD        21.0410   44.1470   99.8390 C.3   324  LYS324      0.0206
     79  CE        20.5020   45.3820  100.5290 C.3   324  LYS324      0.1093
     80  NZ        20.9810   45.3870  101.9400 N.3   324  LYS324     -0.1314
     81  N         26.2090   38.9620   94.0430 N.3   334  LYS334     -0.1245
     82  CA        27.0380   40.1670   93.9070 C.3   334  LYS334      0.1561
     83  C         28.4090   39.9770   94.5400 C.2   334  LYS334      0.2260
     84  O         28.5760   39.1580   95.4370 O.2   334  LYS334     -0.2867
     85  CB        26.3650   41.3530   94.5850 C.3   334  LYS334      0.0271
     86  CG        25.1220   41.8440   93.8880 C.3   334  LYS334      0.0035
     87  CD        24.4290   42.9290   94.7020 C.3   334  LYS334      0.0206
     88  CE        25.2310   44.2150   94.7450 C.3   334  LYS334      0.1093
     89  NZ        24.4580   45.2620   95.4680 N.3   334  LYS334     -0.1314
@<TRIPOS>BOND
     1    39    40    1
     2    40    41    1
     3    40    43    1
     4    50    51    1
     5    50    47    1
     6    45    43    1
     7    46    41   am
     8    46    47    1
     9    52    51   ar
    10    52    54   ar
    11    51    53   ar
    12    41    42    2
    13    43    44    1
    14    47    48    1
    15    54    56   ar
    16    53    55   ar
    17    56    55   ar
    18    48    49    2
    19    48    57   am
    20    57    58    1
    21    86    85    1
    22    86    87    1
    23    82    81    1
    24    82    83    1
    25    82    85    1
    26    68    69    1
    27    68    59   am
    28    58    61    1
    29    58    59    1
    30    62    63    1
    31    62    61    1
    32    83    84    2
    33    71    70    2
    34    87    88    1
    35    88    89    1
    36    69    70    1
    37    63    64    1
    38    59    60    2
    39    70    72   am
    40    74    73    1
    41    74    75    2
    42    31    32    1
    43    72    73    1
    44    73    76    1
    45    64    65    2
    46    32    33    1
    47    32    35    1
    48    66    65    1
    49     3     4    2
    50     3     2    1
    51    65    67    1
    52    76    77    1
    53    33    34    2
    54    35    36    1
    55     2     5    1
    56     2     1    1
    57     5     6    1
    58    77    78    1
    59     7     6    1
    60     7     8    1
    61    36    37    1
    62    36    38    1
    63     9     8    1
    64    17    16   ar
    65    78    79    1
    66    79    80    1
    67    16    18   ar
    68    16    15    1
    69    15    14    1
    70    14    11    1
    71    10    11    1
    72    11    12    1
    73    23    24    1
    74    23    20    1
    75    24    26   ar
    76    24    25   ar
    77    26    28   ar
    78    25    27   ar
    79    22    21    2
    80    27    29   ar
    81    28    29   ar
    82    29    30    1
    83    21    20    1
    84    12    13    2
    85    20    19    1
