@<TRIPOS>MOLECULE
tmp/2zalB00.pdb
 81 74 0 0 0
SMALL
GASTEIGER

@<TRIPOS>ATOM
      1  N          5.2160    4.2080   78.6220 N.3     1  THR1       -0.1218
      2  CA         5.6770    2.9960   77.8900 C.3     1  THR1        0.1862
      3  C          6.0050    1.8730   78.8610 C.2     1  THR1        0.2287
      4  O          6.5210    2.1060   79.9580 O.2     1  THR1       -0.2866
      5  CB         6.9080    3.3240   77.0770 C.3     1  THR1        0.1770
      6  OG1        6.6520    4.5020   76.2880 O.3     1  THR1       -0.2211
      7  CG2        7.2450    2.2090   76.0670 C.3     1  THR1        0.0375
      8  N          2.6950    1.3600   74.5020 N.3    19  THR19      -0.1218
      9  CA         2.7200    2.7220   74.9810 C.3    19  THR19       0.1862
     10  C          1.5370    3.5280   74.4760 C.2    19  THR19       0.2287
     11  O          0.9110    3.1850   73.4540 O.2    19  THR19      -0.2866
     12  CB         4.0250    3.4010   74.5250 C.3    19  THR19       0.1770
     13  OG1        4.1890    4.6590   75.2010 O.3    19  THR19      -0.2211
     14  CG2        3.9510    3.7380   73.0200 C.3    19  THR19       0.0375
     15  N          2.5530    6.6990   74.0790 N.3    21  GLY21      -0.1210
     16  CA         3.4200    7.6780   73.4560 C.3    21  GLY21       0.1956
     17  C          3.9020    8.7490   74.4140 C.2    21  GLY21       0.2611
     18  O          4.1460    8.4870   75.5930 O.2    21  GLY21      -0.2717
     19  N          4.0470    9.9640   73.8990 N.am   22  MET22      -0.1979
     20  CA         4.4880   11.0880   74.6930 C.3    22  MET22       0.1605
     21  C          3.3560   12.0750   74.8720 C.2    22  MET22       0.2287
     22  O          2.6290   12.4090   73.9320 O.2    22  MET22      -0.2864
     23  CB         5.7030   11.7650   74.0660 C.3    22  MET22       0.0413
     24  CG         6.8550   10.7930   73.9840 C.3    22  MET22       0.0598
     25  SD         8.4790   11.4420   73.5710 S.3    22  MET22      -0.1393
     26  CE         9.2800   10.2510   74.2530 C.3    22  MET22       0.0692
     27  N          1.4470   11.0530   65.4930 N.3    29  ARG29      -0.1245
     28  CA         2.8410   10.8090   65.8450 C.3    29  ARG29       0.1563
     29  C          3.0730    9.3690   66.2610 C.2    29  ARG29       0.2260
     30  O          2.3370    8.7760   67.0560 O.2    29  ARG29      -0.2867
     31  CB         3.2970   11.7920   66.9250 C.3    29  ARG29       0.0307
     32  CG         4.7280   11.6010   67.3870 C.3    29  ARG29       0.0489
     33  CD         4.8970   10.5470   68.4410 C.3    29  ARG29       0.2205
     34  NE         6.1930   10.5980   69.1050 N.pl3  29  ARG29      -0.0865
     35  CZ         6.5020    9.8440   70.1450 C.cat  29  ARG29       0.5346
     36  NH1        5.6270    8.9790   70.6280 N.pl3  29  ARG29       0.1354
     37  NH2        7.6950    9.9400   70.6980 N.pl3  29  ARG29       0.1354
     38  N          6.1500    6.9260   67.7420 N.3    31  GLY31      -0.1210
     39  CA         7.4410    6.8840   68.4000 C.3    31  GLY31       0.1956
     40  C          8.1750    5.5740   68.0960 C.2    31  GLY31       0.2612
     41  O          7.9460    4.9090   67.0770 O.2    31  GLY31      -0.2717
     42  N          9.1260    5.2450   68.9640 N.am   32  ASP32      -0.1959
     43  CA         9.9890    4.0850   68.7550 C.3    32  ASP32       0.1840
     44  C          9.2960    2.7800   69.1060 C.2    32  ASP32       0.2622
     45  O          9.6880    1.7390   68.6180 O.2    32  ASP32      -0.2715
     46  CB        11.2770    4.1970   69.5720 C.3    32  ASP32       0.1450
     47  CG        11.0170    4.1930   71.0620 C.2    32  ASP32       0.3671
     48  OD1       10.1720    5.0120   71.5270 O.co2  32  ASP32      -0.2456
     49  OD2       11.5940    3.3820   71.8280 O.co2  32  ASP32      -0.2456
     50  N          8.2700    2.8360   69.9430 N.am   33  SER33      -0.1950
     51  CA         7.7780    1.6210   70.5970 C.3    33  SER33       0.1924
     52  C          7.2830    0.5490   69.6340 C.2    33  SER33       0.2314
     53  O          7.5790   -0.6230   69.8640 O.2    33  SER33      -0.2863
     54  CB         6.6840    1.9350   71.6220 C.3    33  SER33       0.2116
     55  OG         7.1300    2.8770   72.5740 O.3    33  SER33      -0.2180
     56  N         12.3930    2.5710   76.5150 N.3    52  THR52      -0.1203
     57  CA        11.5020    3.6420   76.9490 C.3    52  THR52       0.1994
     58  C         12.3030    4.9380   77.0100 C.2    52  THR52       0.2618
     59  O         13.4750    4.9270   77.2920 O.2    52  THR52      -0.2717
     60  CB        10.8700    3.2910   78.3310 C.3    52  THR52       0.1784
     61  OG1       10.3040    4.4550   78.9510 O.3    52  THR52      -0.2211
     62  CG2       11.9310    2.7850   79.3170 C.3    52  THR52       0.0376
     63  N         11.6510    6.0540   76.7520 N.am   53  GLY53      -0.1956
     64  CA        12.3040    7.3450   76.7770 C.3    53  GLY53       0.1869
     65  C         11.8890    8.2110   75.6090 C.2    53  GLY53       0.2309
     66  O         10.7720    8.0770   75.1060 O.2    53  GLY53      -0.2863
     67  N         11.4200    9.0720   72.2830 N.3    55  GLY55      -0.1225
     68  CA        11.2330    8.0800   71.2500 C.3    55  GLY55       0.1811
     69  C         11.8740    8.4600   69.9420 C.2    55  GLY55       0.2280
     70  O         12.4050    7.5790   69.2590 O.2    55  GLY55      -0.2866
     71  N         15.4540    7.4270   69.9660 N.3    58  PHE58      -0.1241
     72  CA        15.5940    5.9740   69.8940 C.3    58  PHE58       0.1605
     73  C         15.3570    5.4480   68.4630 C.2    58  PHE58       0.2264
     74  O         16.0090    4.4740   68.0370 O.2    58  PHE58      -0.2867
     75  CB        14.6530    5.2780   70.8750 C.3    58  PHE58       0.0534
     76  CG        15.1200    5.3020   72.3260 C.ar   58  PHE58      -0.0203
     77  CD1       15.2180    6.4810   73.0220 C.ar   58  PHE58      -0.0042
     78  CD2       15.4290    4.1260   72.9840 C.ar   58  PHE58      -0.0042
     79  CE1       15.5870    6.4880   74.3720 C.ar   58  PHE58      -0.0003
     80  CE2       15.8220    4.1400   74.3370 C.ar   58  PHE58      -0.0003
     81  CZ        15.8990    5.3210   75.0100 C.ar   58  PHE58      -0.0000
@<TRIPOS>BOND
     1    27    28    1
     2    28    29    1
     3    28    31    1
     4    29    30    2
     5    31    32    1
     6    41    40    2
     7    32    33    1
     8    38    39    1
     9    74    73    2
    10    40    39    1
    11    40    42   am
    12    33    34    1
    13    73    72    1
    14    45    44    2
    15    43    42    1
    16    43    44    1
    17    43    46    1
    18    34    35    2
    19    44    50   am
    20    70    69    2
    21    46    47    1
    22    52    53    2
    23    52    51    1
    24    72    71    1
    25    72    75    1
    26    69    68    1
    27    50    51    1
    28    35    36    1
    29    35    37    1
    30    51    54    1
    31    75    76    1
    32    47    48   ar
    33    47    49   ar
    34    68    67    1
    35    54    55    1
    36    76    78   ar
    37    76    77   ar
    38    78    80   ar
    39    14    12    1
    40    77    79   ar
    41    11    10    2
    42    16    15    1
    43    16    17    1
    44    25    24    1
    45    25    26    1
    46    19    17   am
    47    19    20    1
    48    22    21    2
    49    24    23    1
    50    23    20    1
    51    80    81   ar
    52    79    81   ar
    53    17    18    2
    54    10     9    1
    55     8     9    1
    56    12     9    1
    57    12    13    1
    58    20    21    1
    59    66    65    2
    60    65    64    1
    61     7     5    1
    62     6     5    1
    63    56    57    1
    64    63    64    1
    65    63    58   am
    66    57    58    1
    67    57    60    1
    68    58    59    2
    69     5     2    1
    70     2     1    1
    71     2     3    1
    72    60    61    1
    73    60    62    1
    74     3     4    2
