@<TRIPOS>MOLECULE
tmp/2zanA00.pdb
 150 144 0 0 0
SMALL
GASTEIGER

@<TRIPOS>ATOM
      1  N         48.4850   31.4100    2.5940 N.3    12  ASP12      -0.1225
      2  CA        47.9950   30.0490    2.4960 C.3    12  ASP12       0.1805
      3  C         48.1310   29.2270    3.7600 C.2    12  ASP12       0.2598
      4  O         47.4460   28.2260    3.9270 O.2    12  ASP12      -0.2718
      5  CB        48.6910   29.3320    1.3520 C.3    12  ASP12       0.1424
      6  CG        48.4150   29.9770    0.0240 C.2    12  ASP12       0.3668
      7  OD1       47.2820   30.4640   -0.1560 O.co2  12  ASP12      -0.2456
      8  OD2       49.3150   29.9920   -0.8440 O.co2  12  ASP12      -0.2456
      9  N         49.0110   29.6390    4.6550 N.am   13  VAL13      -0.1966
     10  CA        49.2070   28.8930    5.8880 C.3    13  VAL13       0.1727
     11  C         48.3790   29.5430    6.9810 C.2    13  VAL13       0.2616
     12  O         48.6000   30.6950    7.3280 O.2    13  VAL13      -0.2715
     13  CB        50.7070   28.8820    6.2930 C.3    13  VAL13       0.0290
     14  CG1       50.9590   27.8820    7.4090 C.3    13  VAL13       0.0023
     15  CG2       51.5560   28.5430    5.0920 C.3    13  VAL13       0.0023
     16  N         47.4200   28.8020    7.5190 N.am   14  ALA14      -0.1977
     17  CA        46.5580   29.3180    8.5770 C.3    14  ALA14       0.1597
     18  C         47.2730   29.3370    9.9250 C.2    14  ALA14       0.2287
     19  O         48.1220   28.4980   10.1950 O.2    14  ALA14      -0.2864
     20  CB        45.2910   28.4780    8.6670 C.3    14  ALA14       0.0319
     21  N         49.8320   30.0470   12.8900 N.3    16  LEU16      -0.1245
     22  CA        51.2970   30.1160   12.9410 C.3    16  LEU16       0.1561
     23  C         51.9010   31.5020   12.7230 C.2    16  LEU16       0.2260
     24  O         53.0490   31.6080   12.2930 O.2    16  LEU16      -0.2867
     25  CB        51.9050   29.1450   11.9200 C.3    16  LEU16       0.0270
     26  CG        51.5180   27.6590   11.9500 C.3    16  LEU16       0.0019
     27  CD1       52.2930   26.8970   10.8760 C.3    16  LEU16       0.0001
     28  CD2       51.8080   27.0860   13.3110 C.3    16  LEU16       0.0001
     29  N         52.7530   15.8780   14.5250 N.3    53  PRO53      -0.2102
     30  CA        52.5430   15.6320   13.1060 C.3    53  PRO53       0.1504
     31  C         51.3720   16.3750   12.4670 C.2    53  PRO53       0.2576
     32  O         50.3180   16.5760   13.0820 O.2    53  PRO53      -0.2718
     33  CB        52.3770   14.1180   13.0590 C.3    53  PRO53       0.0282
     34  CG        51.6650   13.8380   14.3120 C.3    53  PRO53       0.0208
     35  CD        52.4350   14.6670   15.3040 C.3    53  PRO53       0.0893
     36  N         51.5890   16.7850   11.2190 N.am   54  GLY54      -0.1943
     37  CA        50.5610   17.4640   10.4580 C.3    54  GLY54       0.2014
     38  C         50.1430   18.8210   10.9650 C.2    54  GLY54       0.2640
     39  O         49.0040   19.2300   10.7470 O.2    54  GLY54      -0.2714
     40  N         51.0540   19.5200   11.6330 N.am   55  THR55      -0.1936
     41  CA        50.7430   20.8430   12.1450 C.3    55  THR55       0.2028
     42  C         51.3140   21.9670   11.3070 C.2    55  THR55       0.2643
     43  O         51.1720   23.1210   11.6690 O.2    55  THR55      -0.2714
     44  CB        51.2390   21.0540   13.5690 C.3    55  THR55       0.1808
     45  OG1       52.6580   20.9340   13.6030 O.3    55  THR55      -0.2208
     46  CG2       50.6410   20.0500   14.4890 C.3    55  THR55       0.0379
     47  N         51.9750   21.6500   10.2060 N.am   56  GLY56      -0.1939
     48  CA        52.5000   22.7140    9.3790 C.3    56  GLY56       0.2014
     49  C         53.9810   22.6960    9.0710 C.2    56  GLY56       0.2639
     50  O         54.4270   23.4880    8.2420 O.2    56  GLY56      -0.2714
     51  N         54.7500   21.8080    9.7020 N.am   57  LYS57      -0.1963
     52  CA        56.1950   21.7650    9.4650 C.3    57  LYS57       0.1728
     53  C         56.6370   21.8030    7.9950 C.2    57  LYS57       0.2617
     54  O         57.1780   22.8110    7.5230 O.2    57  LYS57      -0.2715
     55  CB        56.7980   20.5520   10.1500 C.3    57  LYS57       0.0311
     56  CG        57.0120   20.7420   11.6260 C.3    57  LYS57       0.0038
     57  CD        55.7890   20.4230   12.4160 C.3    57  LYS57       0.0206
     58  CE        55.4800   18.9670   12.3060 C.3    57  LYS57       0.1093
     59  NZ        56.6710   18.1750   12.6850 N.3    57  LYS57      -0.1314
     60  N         56.4260   20.7090    7.2710 N.am   58  SER58      -0.1936
     61  CA        56.8000   20.6710    5.8660 C.3    58  SER58       0.2055
     62  C         56.0970   21.8000    5.1120 C.2    58  SER58       0.2643
     63  O         56.7380   22.5390    4.3680 O.2    58  SER58      -0.2714
     64  CB        56.4140   19.3310    5.2500 C.3    58  SER58       0.2130
     65  OG        56.9620   18.2590    5.9820 O.3    58  SER58      -0.2179
     66  N         54.7860   21.9440    5.3100 N.am   59  TYR59      -0.1973
     67  CA        54.0240   22.9940    4.6260 C.3    59  TYR59       0.1639
     68  C         54.6060   24.3840    4.8170 C.2    59  TYR59       0.2290
     69  O         54.6860   25.1680    3.8760 O.2    59  TYR59      -0.2864
     70  CB        52.5730   23.0110    5.0990 C.3    59  TYR59       0.0560
     71  CG        51.6350   23.7820    4.1740 C.ar   59  TYR59      -0.0198
     72  CD1       51.5210   23.4470    2.8220 C.ar   59  TYR59      -0.0009
     73  CD2       50.8200   24.7970    4.6630 C.ar   59  TYR59      -0.0009
     74  CE1       50.6210   24.0920    1.9960 C.ar   59  TYR59       0.0417
     75  CE2       49.9170   25.4460    3.8390 C.ar   59  TYR59       0.0417
     76  CZ        49.8180   25.0850    2.5110 C.ar   59  TYR59       0.1957
     77  OH        48.8730   25.6880    1.7120 O.3    59  TYR59      -0.2866
     78  N         63.7210   17.9300    5.4820 N.3   102  ASP102     -0.1225
     79  CA        62.5060   17.4900    6.1580 C.3   102  ASP102      0.1805
     80  C         62.7880   16.2040    6.9410 C.2   102  ASP102      0.2597
     81  O         63.6090   15.3720    6.5260 O.2   102  ASP102     -0.2718
     82  CB        61.3790   17.2530    5.1540 C.3   102  ASP102      0.1424
     83  CG        60.0090   17.5860    5.7270 C.2   102  ASP102      0.3668
     84  OD1       59.7950   17.4030    6.9490 O.co2 102  ASP102     -0.2456
     85  OD2       59.1390   18.0240    4.9450 O.co2 102  ASP102     -0.2456
     86  N         62.0880   16.0480    8.0660 N.am  103  GLU103     -0.1979
     87  CA        62.2610   14.9010    8.9530 C.3   103  GLU103      0.1602
     88  C         63.7300   14.5330    8.9870 C.2   103  GLU103      0.2287
     89  O         64.1760   13.6320    8.2790 O.2   103  GLU103     -0.2864
     90  CB        61.4020   13.7180    8.4900 C.3   103  GLU103      0.0415
     91  CG        61.3480   13.5490    6.9890 C.3   103  GLU103      0.1163
     92  CD        59.9520   13.2410    6.4820 C.2   103  GLU103      0.3649
     93  OE1       59.6970   13.4590    5.2810 O.co2 103  GLU103     -0.2457
     94  OE2       59.1100   12.7770    7.2800 O.co2 103  GLU103     -0.2457
     95  N         60.7260   18.0830   12.1250 N.3   146  THR146     -0.1203
     96  CA        60.5760   16.7930   12.7800 C.3   146  THR146      0.1994
     97  C         59.4550   16.7550   13.8010 C.2   146  THR146      0.2617
     98  O         59.1770   17.7470   14.4680 O.2   146  THR146     -0.2717
     99  CB        61.8500   16.3970   13.5060 C.3   146  THR146      0.1784
    100  OG1       61.6340   15.1620   14.1910 O.3   146  THR146     -0.2211
    101  CG2       62.2230   17.4530   14.5210 C.3   146  THR146      0.0376
    102  N         58.8250   15.5930   13.9310 N.am  147  ASN147     -0.1974
    103  CA        57.7330   15.4280   14.8780 C.3   147  ASN147      0.1688
    104  C         58.1200   14.4660   16.0010 C.2   147  ASN147      0.2292
    105  O         57.2800   14.0470   16.8050 O.2   147  ASN147     -0.2864
    106  CB        56.4740   14.9410   14.1480 C.3   147  ASN147      0.1181
    107  CG        56.7080   13.6780   13.3510 C.2   147  ASN147      0.2629
    108  OD1       56.8950   12.6010   13.9140 O.2   147  ASN147     -0.2716
    109  ND2       56.7070   13.8050   12.0310 N.am  147  ASN147     -0.0877
    110  N         41.3330   26.7730    7.5420 N.3   177  MET177     -0.1245
    111  CA        41.8540   25.7190    6.6890 C.3   177  MET177      0.1570
    112  C         40.7330   25.1370    5.8530 C.2   177  MET177      0.2261
    113  O         40.9080   24.8730    4.6690 O.2   177  MET177     -0.2867
    114  CB        42.5180   24.6260    7.5170 C.3   177  MET177      0.0387
    115  CG        43.8990   25.0070    8.0250 C.3   177  MET177      0.0595
    116  SD        44.5620   23.8110    9.1790 S.3   177  MET177     -0.1393
    117  CE        45.7580   24.7530   10.0210 C.3   177  MET177      0.0692
    118  N         40.1380   27.4400    2.9430 N.3   180  LEU180     -0.1231
    119  CA        41.2160   27.3760    1.9650 C.3   180  LEU180      0.1693
    120  C         41.3050   26.1270    1.1240 C.2   180  LEU180      0.2592
    121  O         41.3590   26.2000   -0.1060 O.2   180  LEU180     -0.2718
    122  CB        42.5550   27.6060    2.6580 C.3   180  LEU180      0.0284
    123  CG        42.6190   28.8380    3.5690 C.3   180  LEU180      0.0019
    124  CD1       44.0430   28.9910    4.0470 C.3   180  LEU180      0.0001
    125  CD2       42.1450   30.1070    2.8430 C.3   180  LEU180      0.0001
    126  N         41.3260   24.9810    1.7840 N.am  181  HIS181     -0.1976
    127  CA        41.4400   23.7180    1.0780 C.3   181  HIS181      0.1656
    128  C         40.2650   23.4330    0.1720 C.2   181  HIS181      0.2291
    129  O         40.2520   22.4430   -0.5620 O.2   181  HIS181     -0.2864
    130  CB        41.6320   22.6000    2.0890 C.3   181  HIS181      0.0771
    131  CG        42.9220   22.7080    2.8320 C.ar  181  HIS181      0.0820
    132  ND1       42.9880   22.7950    4.2060 N.ar  181  HIS181     -0.2267
    133  CD2       44.1960   22.8000    2.3870 C.ar  181  HIS181      0.1154
    134  CE1       44.2460   22.9370    4.5750 C.ar  181  HIS181      0.1986
    135  NE2       44.9990   22.9450    3.4900 N.ar  181  HIS181     -0.2212
    136  N         46.4170   20.0480   11.0640 N.3   206  GLY206     -0.1210
    137  CA        46.1150   20.6040    9.7670 C.3   206  GLY206      0.1956
    138  C         45.9740   19.4770    8.7690 C.2   206  GLY206      0.2611
    139  O         45.1320   19.5360    7.8760 O.2   206  GLY206     -0.2717
    140  N         46.8020   18.4450    8.9320 N.am  207  ALA207     -0.1979
    141  CA        46.7930   17.2960    8.0370 C.3   207  ALA207      0.1597
    142  C         45.4680   16.5520    8.1240 C.2   207  ALA207      0.2287
    143  O         44.9700   16.0310    7.1250 O.2   207  ALA207     -0.2864
    144  CB        47.9470   16.3620    8.3790 C.3   207  ALA207      0.0319
    145  N         42.8940   18.5630    6.3360 N.3   210  SER210     -0.1217
    146  CA        43.2360   18.4690    4.9290 C.3   210  SER210      0.1889
    147  C         42.6770   17.2010    4.3290 C.2   210  SER210      0.2288
    148  O         42.3020   17.1720    3.1600 O.2   210  SER210     -0.2866
    149  CB        44.7320   18.4610    4.7300 C.3   210  SER210      0.2089
    150  OG        44.9860   18.1380    3.3880 O.3   210  SER210     -0.2183
@<TRIPOS>BOND
     1     8     6   ar
     2   129   128    2
     3     7     6   ar
     4   121   120    2
     5     6     5    1
     6   128   127    1
     7   127   126    1
     8   127   130    1
     9   120   126   am
    10   120   119    1
    11     5     2    1
    12    77    76    1
    13   119   122    1
    14   119   118    1
    15    74    76   ar
    16    74    72   ar
    17   130   131    1
    18   133   131   ar
    19   133   135   ar
    20     2     1    1
    21     2     3    1
    22    76    75   ar
    23   122   123    1
    24    72    71   ar
    25   131   132   ar
    26   125   123    1
    27   148   147    2
    28   150   149    1
    29   135   134   ar
    30   123   124    1
    31     3     4    2
    32     3     9   am
    33    75    73   ar
    34    69    68    2
    35    71    73   ar
    36    71    70    1
    37   132   134   ar
    38   147   146    1
    39    63    62    2
    40    67    68    1
    41    67    70    1
    42    67    66    1
    43     9    10    1
    44   113   112    2
    45   149   146    1
    46   146   145    1
    47    85    83   ar
    48    15    13    1
    49    62    66   am
    50    62    61    1
    51    82    83    1
    52    82    79    1
    53    64    61    1
    54    64    65    1
    55    93    92   ar
    56    78    79    1
    57    83    84   ar
    58   112   111    1
    59    61    60    1
    60    10    13    1
    61    10    11    1
    62    79    80    1
    63    13    14    1
    64    92    91    1
    65    92    94   ar
    66    81    80    2
    67   111   114    1
    68   111   110    1
    69    80    86   am
    70    11    12    2
    71    11    16   am
    72    91    90    1
    73   143   142    2
    74    60    53   am
    75   114   115    1
    76    16    17    1
    77    54    53    2
    78   139   138    2
    79    53    52    1
    80   115   116    1
    81   141   142    1
    82   141   144    1
    83   141   140    1
    84    86    87    1
    85    50    49    2
    86    89    88    2
    87    90    87    1
    88    17    20    1
    89    17    18    1
    90   138   140   am
    91   138   137    1
    92    87    88    1
    93    49    48    1
    94    49    51   am
    95   116   117    1
    96    48    47    1
    97    52    51    1
    98    52    55    1
    99   137   136    1
   100    18    19    2
   101    55    56    1
   102    47    42   am
   103    37    38    1
   104    37    36    1
   105    39    38    2
   106    27    26    1
   107    38    40   am
   108    36    31   am
   109    42    43    2
   110    42    41    1
   111    56    57    1
   112    40    41    1
   113    25    26    1
   114    25    22    1
   115    26    28    1
   116   109   107   am
   117    95    96    1
   118    41    44    1
   119    24    23    2
   120    58    57    1
   121    58    59    1
   122    31    32    2
   123    31    30    1
   124    23    22    1
   125    96    99    1
   126    96    97    1
   127    21    22    1
   128    33    30    1
   129    33    34    1
   130    30    29    1
   131   107   108    2
   132   107   106    1
   133    99   100    1
   134    99   101    1
   135    44    45    1
   136    44    46    1
   137    97   102   am
   138    97    98    2
   139   102   103    1
   140   106   103    1
   141    34    35    1
   142    29    35    1
   143   103   104    1
   144   104   105    2
