@<TRIPOS>MOLECULE
tmp/2zaoA00.pdb
 141 135 0 0 0
SMALL
GASTEIGER

@<TRIPOS>ATOM
      1  N         27.0790   31.3350    2.5570 N.3    12  ASP12      -0.1225
      2  CA        27.5420   29.9500    2.6000 C.3    12  ASP12       0.1805
      3  C         27.2700   29.1830    1.3150 C.2    12  ASP12       0.2598
      4  O         27.9990   28.2490    0.9700 O.2    12  ASP12      -0.2718
      5  CB        26.9220   29.2170    3.7790 C.3    12  ASP12       0.1424
      6  CG        27.3020   29.8430    5.0930 C.2    12  ASP12       0.3668
      7  OD1       28.4220   30.3930    5.1930 O.co2  12  ASP12      -0.2456
      8  OD2       26.4870   29.7840    6.0390 O.co2  12  ASP12      -0.2456
      9  N         26.2090   29.5680    0.6180 N.am   13  VAL13      -0.1966
     10  CA        25.8720   28.9230   -0.6320 C.3    13  VAL13       0.1727
     11  C         26.7500   29.6000   -1.6530 C.2    13  VAL13       0.2616
     12  O         26.6070   30.7920   -1.8900 O.2    13  VAL13      -0.2715
     13  CB        24.4270   29.1510   -0.9810 C.3    13  VAL13       0.0290
     14  CG1       24.0380   28.3390   -2.1910 C.3    13  VAL13       0.0023
     15  CG2       23.5930   28.7960    0.2000 C.3    13  VAL13       0.0023
     16  N         27.6780   28.8580   -2.2410 N.am   14  ALA14      -0.1977
     17  CA        28.5690   29.4470   -3.2170 C.3    14  ALA14       0.1597
     18  C         27.9240   29.3970   -4.5820 C.2    14  ALA14       0.2287
     19  O         27.1010   28.5350   -4.8410 O.2    14  ALA14      -0.2864
     20  CB        29.8770   28.7100   -3.2220 C.3    14  ALA14       0.0319
     21  N         25.4730   30.0810   -7.6790 N.3    16  LEU16      -0.1245
     22  CA        24.0220   30.2300   -7.7810 C.3    16  LEU16       0.1561
     23  C         23.5210   31.6690   -7.6330 C.2    16  LEU16       0.2260
     24  O         22.5840   31.9300   -6.8850 O.2    16  LEU16      -0.2867
     25  CB        23.3300   29.3320   -6.7340 C.3    16  LEU16       0.0270
     26  CG        23.6230   27.8220   -6.7320 C.3    16  LEU16       0.0019
     27  CD1       22.8120   27.1600   -5.6590 C.3    16  LEU16       0.0001
     28  CD2       23.3300   27.2050   -8.0690 C.3    16  LEU16       0.0001
     29  N         22.6270   16.0060   -9.3640 N.3    53  PRO53      -0.2102
     30  CA        22.7230   15.8100   -7.9290 C.3    53  PRO53       0.1504
     31  C         23.9240   16.4600   -7.2990 C.2    53  PRO53       0.2576
     32  O         24.9880   16.5710   -7.9080 O.2    53  PRO53      -0.2718
     33  CB        22.7470   14.2940   -7.8010 C.3    53  PRO53       0.0282
     34  CG        23.5600   13.8970   -8.9500 C.3    53  PRO53       0.0208
     35  CD        23.0230   14.7780  -10.0730 C.3    53  PRO53       0.0893
     36  N         23.7320   16.8770   -6.0540 N.am   54  GLY54      -0.1943
     37  CA        24.7910   17.4950   -5.2790 C.3    54  GLY54       0.2014
     38  C         25.2000   18.8620   -5.7680 C.2    54  GLY54       0.2640
     39  O         26.3000   19.2900   -5.4470 O.2    54  GLY54      -0.2714
     40  N         24.3300   19.5330   -6.5310 N.am   55  THR55      -0.1936
     41  CA        24.6180   20.8670   -7.0510 C.3    55  THR55       0.2028
     42  C         24.1060   21.9740   -6.1160 C.2    55  THR55       0.2643
     43  O         24.4030   23.1460   -6.3100 O.2    55  THR55      -0.2714
     44  CB        24.0130   21.0790   -8.4240 C.3    55  THR55       0.1808
     45  OG1       22.5970   20.9490   -8.3390 O.3    55  THR55      -0.2208
     46  CG2       24.5560   20.0590   -9.3870 C.3    55  THR55       0.0379
     47  N         23.3430   21.6090   -5.1000 N.am   56  GLY56      -0.1939
     48  CA        22.8960   22.6370   -4.2060 C.3    56  GLY56       0.2014
     49  C         21.4460   22.6350   -3.8010 C.2    56  GLY56       0.2639
     50  O         21.1010   23.2920   -2.8200 O.2    56  GLY56      -0.2714
     51  N         20.6010   21.9060   -4.5310 N.am   57  LYS57      -0.1963
     52  CA        19.1720   21.8480   -4.2280 C.3    57  LYS57       0.1728
     53  C         18.8040   21.8870   -2.7360 C.2    57  LYS57       0.2617
     54  O         18.3220   22.9130   -2.2200 O.2    57  LYS57      -0.2715
     55  CB        18.5510   20.6190   -4.8630 C.3    57  LYS57       0.0311
     56  CG        18.1330   20.8160   -6.2880 C.3    57  LYS57       0.0038
     57  CD        19.2600   20.6660   -7.3080 C.3    57  LYS57       0.0206
     58  CE        19.4860   19.2150   -7.7120 C.3    57  LYS57       0.1093
     59  NZ        19.9720   18.4440   -6.5460 N.3    57  LYS57      -0.1314
     60  N         19.0110   20.7730   -2.0390 N.am   58  SER58      -0.1936
     61  CA        18.6750   20.7250   -0.6230 C.3    58  SER58       0.2055
     62  C         19.3400   21.9110    0.0750 C.2    58  SER58       0.2643
     63  O         18.6590   22.7820    0.6280 O.2    58  SER58      -0.2714
     64  CB        19.1340   19.4000    0.0250 C.3    58  SER58       0.2130
     65  OG        18.6210   18.2600   -0.6550 O.3    58  SER58      -0.2179
     66  N         20.6690   21.9740    0.0100 N.am   59  TYR59      -0.1973
     67  CA        21.4270   23.0600    0.6540 C.3    59  TYR59       0.1639
     68  C         20.8030   24.4460    0.5140 C.2    59  TYR59       0.2290
     69  O         20.5050   25.1230    1.5040 O.2    59  TYR59      -0.2864
     70  CB        22.8530   23.1070    0.1000 C.3    59  TYR59       0.0560
     71  CG        23.8040   23.8830    0.9900 C.ar   59  TYR59      -0.0198
     72  CD1       24.0070   23.5060    2.3160 C.ar   59  TYR59      -0.0009
     73  CD2       24.5130   24.9700    0.5030 C.ar   59  TYR59      -0.0009
     74  CE1       24.8900   24.1820    3.1270 C.ar   59  TYR59       0.0417
     75  CE2       25.4000   25.6550    1.3070 C.ar   59  TYR59       0.0417
     76  CZ        25.5880   25.2540    2.6200 C.ar   59  TYR59       0.1957
     77  OH        26.5060   25.9210    3.4140 O.3    59  TYR59      -0.2866
     78  N         11.9750   17.6210   -0.1100 N.3   102  ASP102     -0.1239
     79  CA        13.2040   17.1380   -0.7530 C.3   102  ASP102      0.1674
     80  C         12.9070   15.9350   -1.6520 C.2   102  ASP102      0.2266
     81  O         12.0040   15.1490   -1.3770 O.2   102  ASP102     -0.2867
     82  CB        14.2490   16.7520    0.3060 C.3   102  ASP102      0.1410
     83  CG        15.6770   16.7010   -0.2540 C.2   102  ASP102      0.3668
     84  OD1       15.8630   16.5140   -1.4810 O.co2 102  ASP102     -0.2456
     85  OD2       16.6310   16.8360    0.5480 O.co2 102  ASP102     -0.2456
     86  N         16.5960   15.3880   -8.6420 N.3   147  ASN147     -0.1240
     87  CA        17.7720   15.1520   -9.4700 C.3   147  ASN147      0.1653
     88  C         17.3330   14.4010  -10.7190 C.2   147  ASN147      0.2266
     89  O         18.0760   14.2990  -11.7060 O.2   147  ASN147     -0.2867
     90  CB        18.8070   14.3290   -8.7000 C.3   147  ASN147      0.1155
     91  CG        19.1360   14.9310   -7.3580 C.2   147  ASN147      0.2627
     92  OD1       19.5430   16.0820   -7.2730 O.2   147  ASN147     -0.2716
     93  ND2       18.9570   14.1580   -6.2980 N.am  147  ASN147     -0.0877
     94  N         28.7180   23.6320  -10.2980 N.3   169  PRO169     -0.2116
     95  CA        29.5280   24.8030   -9.9710 C.3   169  PRO169      0.1372
     96  C         30.5890   25.1400  -11.0060 C.2   169  PRO169      0.2244
     97  O         31.2000   24.2460  -11.5930 O.2   169  PRO169     -0.2868
     98  CB        30.1550   24.4150   -8.6450 C.3   169  PRO169      0.0268
     99  CG        30.3450   22.9420   -8.8240 C.3   169  PRO169      0.0207
    100  CD        28.9950   22.5500   -9.3470 C.3   169  PRO169      0.0892
    101  N         33.8380   26.9000   -2.3350 N.3   177  MET177     -0.1245
    102  CA        33.3420   25.7860   -1.5570 C.3   177  MET177      0.1570
    103  C         34.4720   25.1390   -0.7630 C.2   177  MET177      0.2261
    104  O         34.2510   24.6880    0.3560 O.2   177  MET177     -0.2867
    105  CB        32.6350   24.7990   -2.4760 C.3   177  MET177      0.0387
    106  CG        31.4540   25.4590   -3.1570 C.3   177  MET177      0.0595
    107  SD        30.5590   24.3990   -4.2710 S.3   177  MET177     -0.1393
    108  CE        30.2760   23.1400   -3.1920 C.3   177  MET177      0.0692
    109  N         35.1090   27.5550    2.0870 N.3   180  LEU180     -0.1231
    110  CA        33.9280   27.5420    2.9680 C.3   180  LEU180      0.1693
    111  C         33.8660   26.3400    3.8930 C.2   180  LEU180      0.2592
    112  O         33.7860   26.4930    5.1160 O.2   180  LEU180     -0.2718
    113  CB        32.6410   27.6400    2.1350 C.3   180  LEU180      0.0284
    114  CG        32.2710   29.0520    1.6160 C.3   180  LEU180      0.0019
    115  CD1       31.1810   28.9860    0.5470 C.3   180  LEU180      0.0001
    116  CD2       31.8000   29.9040    2.7760 C.3   180  LEU180      0.0001
    117  N         33.9170   25.1470    3.3060 N.am  181  HIS181     -0.1976
    118  CA        33.8800   23.9000    4.0700 C.3   181  HIS181      0.1656
    119  C         35.0710   23.7530    4.9850 C.2   181  HIS181      0.2291
    120  O         34.9530   23.1880    6.0720 O.2   181  HIS181     -0.2864
    121  CB        33.8060   22.7290    3.1170 C.3   181  HIS181      0.0771
    122  CG        32.4920   22.6420    2.4250 C.ar  181  HIS181      0.0820
    123  ND1       32.3710   22.4580    1.0660 N.ar  181  HIS181     -0.2267
    124  CD2       31.2390   22.8080    2.9020 C.ar  181  HIS181      0.1154
    125  CE1       31.0960   22.5250    0.7320 C.ar  181  HIS181      0.1986
    126  NE2       30.3880   22.7380    1.8280 N.ar  181  HIS181     -0.2212
    127  N         29.0250   20.0450   -5.9440 N.3   206  GLY206     -0.1210
    128  CA        29.3320   20.5960   -4.6490 C.3   206  GLY206      0.1956
    129  C         29.4140   19.5270   -3.5850 C.2   206  GLY206      0.2611
    130  O         30.1740   19.6700   -2.6280 O.2   206  GLY206     -0.2717
    131  N         28.6420   18.4530   -3.7300 N.am  207  ALA207     -0.1979
    132  CA        28.6720   17.4010   -2.7160 C.3   207  ALA207      0.1597
    133  C         29.9860   16.6430   -2.7580 C.2   207  ALA207      0.2287
    134  O         30.4870   16.1870   -1.7150 O.2   207  ALA207     -0.2864
    135  CB        27.5080   16.4460   -2.9030 C.3   207  ALA207      0.0319
    136  N         32.5710   18.6580   -0.9370 N.3   210  SER210     -0.1217
    137  CA        32.3310   18.5830    0.5070 C.3   210  SER210      0.1889
    138  C         32.7890   17.2530    1.0740 C.2   210  SER210      0.2288
    139  O         33.1760   17.1470    2.2420 O.2   210  SER210     -0.2866
    140  CB        30.8510   18.7470    0.8060 C.3   210  SER210      0.2089
    141  OG        30.6690   18.7580    2.2090 O.3   210  SER210     -0.2183
@<TRIPOS>BOND
     1    89    88    2
     2    97    96    2
     3    96    95    1
     4    88    87    1
     5    94    95    1
     6    94   100    1
     7    35    29    1
     8    35    34    1
     9    95    98    1
    10    87    90    1
    11    87    86    1
    12    46    44    1
    13    29    30    1
    14   100    99    1
    15    34    33    1
    16    99    98    1
    17    90    91    1
    18    44    45    1
    19    44    41    1
    20    28    26    1
    21    30    33    1
    22    30    31    1
    23    32    31    2
    24    22    21    1
    25    22    23    1
    26    22    25    1
    27    58    57    1
    28    58    59    1
    29    23    24    2
    30    91    92    2
    31    91    93   am
    32    57    56    1
    33    31    36   am
    34    41    40    1
    35    41    42    1
    36    25    26    1
    37    26    27    1
    38    40    38   am
    39    43    42    2
    40    56    55    1
    41    42    47   am
    42    36    37    1
    43   127   128    1
    44    38    39    2
    45    38    37    1
    46    47    48    1
    47    55    52    1
    48    19    18    2
    49   128   129    1
    50    18    17    1
    51    51    52    1
    52    51    49   am
    53   107   108    1
    54   107   106    1
    55    52    53    1
    56    48    49    1
    57    49    50    2
    58   131   129   am
    59   131   132    1
    60   129   130    2
    61    20    17    1
    62    17    16    1
    63   106   105    1
    64   135   132    1
    65   133   132    1
    66   133   134    2
    67    53    54    2
    68    53    60   am
    69   105   102    1
    70   101   102    1
    71    16    11   am
    72    14    13    1
    73    60    61    1
    74    12    11    2
    75    11    10    1
    76    80    81    2
    77    80    79    1
    78   102   103    1
    79    84    83   ar
    80    13    10    1
    81    13    15    1
    82   136   137    1
    83   103   104    2
    84    79    78    1
    85    79    82    1
    86    65    64    1
    87    10     9    1
    88    61    64    1
    89    61    62    1
    90    83    82    1
    91    83    85   ar
    92    66    62   am
    93    66    67    1
    94    62    63    2
    95    70    67    1
    96    70    71    1
    97    73    71   ar
    98    73    75   ar
    99   137   140    1
   100   137   138    1
   101    68    67    1
   102    68    69    2
   103   115   114    1
   104     9     3   am
   105   125   123   ar
   106   125   126   ar
   107   140   141    1
   108     4     3    2
   109    71    72   ar
   110   123   122   ar
   111   138   139    2
   112    75    76   ar
   113     3     2    1
   114   114   113    1
   115   114   116    1
   116   126   124   ar
   117   109   110    1
   118   113   110    1
   119    72    74   ar
   120   122   124   ar
   121   122   121    1
   122     1     2    1
   123     2     5    1
   124    76    74   ar
   125    76    77    1
   126   110   111    1
   127   121   118    1
   128   117   111   am
   129   117   118    1
   130     5     6    1
   131   111   112    2
   132   118   119    1
   133   119   120    2
   134     6     7   ar
   135     6     8   ar
