@<TRIPOS>MOLECULE
tmp/2zazA00.pdb
 137 128 0 0 0
SMALL
GASTEIGER

@<TRIPOS>ATOM
      1  N         46.5200   33.4260   22.0070 N.3    27  VAL27      -0.1231
      2  CA        47.6090   33.3730   22.9800 C.3    27  VAL27       0.1692
      3  C         47.8960   31.9430   23.4800 C.2    27  VAL27       0.2592
      4  O         49.0460   31.6000   23.7580 O.2    27  VAL27      -0.2718
      5  CB        47.3820   34.3080   24.2080 C.3    27  VAL27       0.0266
      6  CG1       47.5630   35.7690   23.8250 C.3    27  VAL27       0.0020
      7  CG2       46.0270   34.0830   24.8530 C.3    27  VAL27       0.0020
      8  N         46.8640   31.1080   23.5740 N.am   28  GLY28      -0.1957
      9  CA        47.0360   29.7330   24.0820 C.3    28  GLY28       0.1869
     10  C         46.4420   28.6170   23.2330 C.2    28  GLY28       0.2309
     11  O         45.3390   28.1300   23.5110 O.2    28  GLY28      -0.2863
     12  N         42.4560   29.9850   23.6260 N.3    31  VAL31      -0.1245
     13  CA        42.2990   31.2770   24.2850 C.3    31  VAL31       0.1561
     14  C         42.7260   32.4190   23.3790 C.2    31  VAL31       0.2260
     15  O         43.7360   32.3160   22.6630 O.2    31  VAL31      -0.2867
     16  CB        43.0630   31.3250   25.6240 C.3    31  VAL31       0.0252
     17  CG1       42.8700   32.6800   26.3080 C.3    31  VAL31       0.0019
     18  CG2       42.5920   30.1890   26.5480 C.3    31  VAL31       0.0019
     19  N         40.7710   37.8270   28.4550 N.3    44  ALA44      -0.1245
     20  CA        41.0600   36.5380   27.8230 C.3    44  ALA44       0.1562
     21  C         39.7070   35.8860   27.4770 C.2    44  ALA44       0.2260
     22  O         38.7760   35.9420   28.2630 O.2    44  ALA44      -0.2867
     23  CB        41.8970   35.6700   28.7440 C.3    44  ALA44       0.0290
     24  N         38.1490   32.3560   26.3130 N.3    46  LYS46      -0.1245
     25  CA        38.4070   30.9250   26.1020 C.3    46  LYS46       0.1561
     26  C         37.2270   30.2980   25.3980 C.2    46  LYS46       0.2260
     27  O         36.1270   30.3340   25.9140 O.2    46  LYS46      -0.2867
     28  CB        38.6350   30.1890   27.4310 C.3    46  LYS46       0.0271
     29  CG        38.8360   28.6680   27.2690 C.3    46  LYS46       0.0035
     30  CD        39.5710   27.9990   28.4380 C.3    46  LYS46       0.0206
     31  CE        38.7700   27.9890   29.7640 C.3    46  LYS46       0.1093
     32  NZ        39.3410   26.9450   30.7800 N.3    46  LYS46      -0.1314
     33  N         32.9630   23.5170   35.3300 N.3    64  GLU64      -0.1245
     34  CA        33.7980   24.7050   35.1730 C.3    64  GLU64       0.1567
     35  C         32.9710   25.9650   35.1360 C.2    64  GLU64       0.2260
     36  O         33.3320   26.9750   35.7430 O.2    64  GLU64      -0.2867
     37  CB        34.6650   24.6340   33.9180 C.3    64  GLU64       0.0388
     38  CG        35.4880   25.9380   33.7470 C.3    64  GLU64       0.1160
     39  CD        36.5890   25.8630   32.6910 C.2    64  GLU64       0.3649
     40  OE1       36.5220   24.9610   31.8180 O.co2  64  GLU64      -0.2457
     41  OE2       37.5160   26.7200   32.7290 O.co2  64  GLU64      -0.2457
     42  N         33.3220   28.9360   38.0140 N.3    68  LEU68      -0.1245
     43  CA        33.7200   30.2830   37.6130 C.3    68  LEU68       0.1561
     44  C         32.5940   31.3020   37.9170 C.2    68  LEU68       0.2260
     45  O         32.8500   32.4450   38.3450 O.2    68  LEU68      -0.2867
     46  CB        34.0840   30.2690   36.1350 C.3    68  LEU68       0.0270
     47  CG        35.4100   29.6030   35.7830 C.3    68  LEU68       0.0019
     48  CD1       35.6530   29.5680   34.2510 C.3    68  LEU68       0.0001
     49  CD2       36.5010   30.3720   36.5030 C.3    68  LEU68       0.0001
     50  N         40.4080   33.8990   40.2270 N.3    77  ILE77      -0.1245
     51  CA        39.8400   34.1920   38.8830 C.3    77  ILE77       0.1561
     52  C         38.3270   34.3900   38.9540 C.2    77  ILE77       0.2260
     53  O         37.6360   33.6240   39.5860 O.2    77  ILE77      -0.2867
     54  CB        40.2490   33.0860   37.8090 C.3    77  ILE77       0.0252
     55  CG1       39.9130   33.5260   36.3900 C.3    77  ILE77       0.0019
     56  CG2       39.7110   31.6730   38.1510 C.3    77  ILE77       0.0019
     57  CD1       40.7730   34.7110   35.9500 C.3    77  ILE77       0.0001
     58  N         34.1210   31.7110   27.5010 N.3    97  LEU97      -0.1245
     59  CA        34.2950   32.2390   28.8550 C.3    97  LEU97       0.1561
     60  C         35.2100   33.4560   28.7760 C.2    97  LEU97       0.2260
     61  O         36.2620   33.4070   28.1240 O.2    97  LEU97      -0.2867
     62  CB        34.9580   31.1570   29.7260 C.3    97  LEU97       0.0270
     63  CG        34.1560   29.8560   29.8570 C.3    97  LEU97       0.0019
     64  CD1       35.0340   28.6920   30.4020 C.3    97  LEU97       0.0001
     65  CD2       32.9020   30.1160   30.6990 C.3    97  LEU97       0.0001
     66  N         37.4850   36.4060   30.9690 N.3    99  THR99      -0.1203
     67  CA        38.0120   36.8360   32.2570 C.3    99  THR99       0.1994
     68  C         39.0040   37.9560   32.0180 C.2    99  THR99       0.2618
     69  O         39.3690   38.1850   30.8820 O.2    99  THR99      -0.2717
     70  CB        38.7940   35.6950   32.9910 C.3    99  THR99       0.1784
     71  OG1       39.9610   35.3730   32.2220 O.3    99  THR99      -0.2211
     72  CG2       37.9480   34.4380   33.1750 C.3    99  THR99       0.0376
     73  N         39.4710   38.6240   33.0770 N.am  100  HIS100     -0.1961
     74  CA        40.5520   39.5930   32.9580 C.3   100  HIS100      0.1787
     75  C         41.7320   38.8730   32.3220 C.2   100  HIS100      0.2620
     76  O         41.9680   37.7080   32.6200 O.2   100  HIS100     -0.2715
     77  CB        41.0070   40.0940   34.3330 C.3   100  HIS100      0.0785
     78  CG        40.0150   40.9690   35.0330 C.ar  100  HIS100      0.0821
     79  ND1       39.7990   42.2870   34.6730 N.ar  100  HIS100     -0.2267
     80  CD2       39.1850   40.7200   36.0730 C.ar  100  HIS100      0.1154
     81  CE1       38.8670   42.8030   35.4570 C.ar  100  HIS100      0.1986
     82  NE2       38.4780   41.8720   36.3130 N.ar  100  HIS100     -0.2212
     83  N         42.4670   39.5580   31.4490 N.am  101  LEU101     -0.1963
     84  CA        43.6210   38.9630   30.8260 C.3   101  LEU101      0.1728
     85  C         44.7730   38.9920   31.8210 C.2   101  LEU101      0.2616
     86  O         45.0620   40.0320   32.4240 O.2   101  LEU101     -0.2715
     87  CB        44.0030   39.7660   29.5830 C.3   101  LEU101      0.0311
     88  CG        45.2500   39.3560   28.8120 C.3   101  LEU101      0.0022
     89  CD1       45.1340   37.8980   28.2540 C.3   101  LEU101      0.0001
     90  CD2       45.4360   40.3410   27.7150 C.3   101  LEU101      0.0001
     91  N         45.4500   37.8700   31.9940 N.am  102  MET102     -0.1963
     92  CA        46.5760   37.8640   32.9300 C.3   102  MET102      0.1736
     93  C         47.9080   37.8400   32.1930 C.2   102  MET102      0.2617
     94  O         48.1140   37.0290   31.2950 O.2   102  MET102     -0.2715
     95  CB        46.4710   36.6910   33.8840 C.3   102  MET102      0.0427
     96  CG        45.0480   36.4250   34.3650 C.3   102  MET102      0.0599
     97  SD        44.4270   37.2400   35.8600 S.3   102  MET102     -0.1393
     98  CE        45.5030   38.6530   36.1370 C.3   102  MET102      0.0692
     99  N         48.8090   38.7400   32.5680 N.am  103  GLY103     -0.1955
    100  CA        50.0960   38.8590   31.8760 C.3   103  GLY103      0.1869
    101  C         51.0760   37.7420   32.2030 C.2   103  GLY103      0.2309
    102  O         51.5020   36.9920   31.3160 O.2   103  GLY103     -0.2863
    103  N         44.0510   30.7000   39.5150 N.3   160  LEU160     -0.1231
    104  CA        43.3520   30.3550   38.3010 C.3   160  LEU160      0.1693
    105  C         43.1590   28.8570   38.1940 C.2   160  LEU160      0.2592
    106  O         43.6460   28.0930   39.0220 O.2   160  LEU160     -0.2718
    107  CB        44.1410   30.8330   37.0700 C.3   160  LEU160      0.0284
    108  CG        44.7760   32.2330   37.0340 C.3   160  LEU160      0.0019
    109  CD1       45.2670   32.5280   35.6360 C.3   160  LEU160      0.0001
    110  CD2       43.8210   33.3240   37.4540 C.3   160  LEU160      0.0001
    111  N         42.4480   28.4650   37.1410 N.am  161  ASP161     -0.1960
    112  CA        42.2460   27.0740   36.7430 C.3   161  ASP161      0.1840
    113  C         41.5400   26.1580   37.7480 C.2   161  ASP161      0.2622
    114  O         42.1620   25.3760   38.4090 O.2   161  ASP161     -0.2715
    115  CB        43.5720   26.4540   36.2710 C.3   161  ASP161      0.1450
    116  CG        44.0690   27.0540   34.9580 C.2   161  ASP161      0.3671
    117  OD1       43.3670   27.8790   34.3210 O.co2 161  ASP161     -0.2456
    118  OD2       45.1650   26.6610   34.5300 O.co2 161  ASP161     -0.2456
    119  N         40.2250   26.2640   37.8490 N.am  162  PHE162     -0.1974
    120  CA        39.4760   25.1260   38.4100 C.3   162  PHE162      0.1639
    121  C         38.3810   24.5670   37.4930 C.2   162  PHE162      0.2290
    122  O         37.9540   25.2170   36.5200 O.2   162  PHE162     -0.2864
    123  CB        39.0180   25.2240   39.8900 C.3   162  PHE162      0.0560
    124  CG        39.2450   26.5410   40.5590 C.ar  162  PHE162     -0.0200
    125  CD1       39.3150   27.7370   39.8470 C.ar  162  PHE162     -0.0042
    126  CD2       39.3030   26.5760   41.9300 C.ar  162  PHE162     -0.0042
    127  CE1       39.5280   28.9230   40.4990 C.ar  162  PHE162     -0.0003
    128  CE2       39.5060   27.7540   42.5890 C.ar  162  PHE162     -0.0003
    129  CZ        39.6190   28.9300   41.8700 C.ar  162  PHE162     -0.0000
    130  N         38.9840   22.0540   35.7550 N.3   164  LEU164     -0.1245
    131  CA        39.7330   21.5970   34.5820 C.3   164  LEU164      0.1561
    132  C         39.7510   20.0520   34.4420 C.2   164  LEU164      0.2260
    133  O         39.5320   19.3280   35.4300 O.2   164  LEU164     -0.2867
    134  CB        41.1500   22.2230   34.5440 C.3   164  LEU164      0.0270
    135  CG        41.2950   23.7430   34.2510 C.3   164  LEU164      0.0019
    136  CD1       42.7070   24.0390   33.8020 C.3   164  LEU164      0.0001
    137  CD2       40.3240   24.2990   33.1930 C.3   164  LEU164      0.0001
@<TRIPOS>BOND
     1     1     2    1
     2    15    14    2
     3     2     3    1
     4     2     5    1
     5    10    11    2
     6    10     9    1
     7    14    13    1
     8     3     8   am
     9     3     4    2
    10     8     9    1
    11    12    13    1
    12     6     5    1
    13     5     7    1
    14    13    16    1
    15    26    27    2
    16    26    25    1
    17    16    17    1
    18    16    18    1
    19    25    24    1
    20    25    28    1
    21    29    28    1
    22    29    30    1
    23    21    20    1
    24    21    22    2
    25    58    59    1
    26    90    88    1
    27    20    19    1
    28    20    23    1
    29    61    60    2
    30    89    88    1
    31    30    31    1
    32    60    59    1
    33    88    87    1
    34    59    62    1
    35    87    84    1
    36    62    63    1
    37    31    32    1
    38    63    64    1
    39    63    65    1
    40    84    83    1
    41    84    85    1
    42    69    68    2
    43    66    67    1
    44    94    93    2
    45   102   101    2
    46    83    75   am
    47    40    39   ar
    48    85    91   am
    49    85    86    2
    50   100   101    1
    51   100    99    1
    52    91    92    1
    53    68    67    1
    54    68    73   am
    55    93    99   am
    56    93    92    1
    57    71    70    1
    58    67    70    1
    59    75    76    2
    60    75    74    1
    61    39    41   ar
    62    39    38    1
    63    92    95    1
    64    74    73    1
    65    74    77    1
    66    70    72    1
    67   137   135    1
    68    38    37    1
    69   136   135    1
    70    95    96    1
    71    37    34    1
    72    48    47    1
    73   135   134    1
    74   117   116   ar
    75    77    78    1
    76    96    97    1
    77   132   131    1
    78   132   133    2
    79   118   116   ar
    80   134   131    1
    81   131   130    1
    82    79    78   ar
    83    79    81   ar
    84   116   115    1
    85    78    80   ar
    86    35    34    1
    87    35    36    2
    88    34    33    1
    89    81    82   ar
    90   109   108    1
    91    47    46    1
    92    47    49    1
    93    97    98    1
    94    57    55    1
    95    80    82   ar
    96    46    43    1
    97   115   112    1
    98    55    54    1
    99   122   121    2
   100   112   111    1
   101   112   113    1
   102   108   107    1
   103   108   110    1
   104   107   104    1
   105   111   105   am
   106   121   120    1
   107    43    44    1
   108    43    42    1
   109   113   119   am
   110   113   114    2
   111    54    56    1
   112    54    51    1
   113   119   120    1
   114    44    45    2
   115   105   104    1
   116   105   106    2
   117   104   103    1
   118   120   123    1
   119    51    52    1
   120    51    50    1
   121    52    53    2
   122   125   127   ar
   123   125   124   ar
   124   123   124    1
   125   127   129   ar
   126   124   126   ar
   127   129   128   ar
   128   126   128   ar
