@<TRIPOS>MOLECULE
tmp/2zb0A00.pdb
 168 158 0 0 0
SMALL
GASTEIGER

@<TRIPOS>ATOM
      1  N         46.3660   32.5230   21.7900 N.3    27  VAL27      -0.1231
      2  CA        47.3370   32.6300   22.8570 C.3    27  VAL27       0.1692
      3  C         47.6280   31.2800   23.5070 C.2    27  VAL27       0.2592
      4  O         48.6250   31.1260   24.2210 O.2    27  VAL27      -0.2718
      5  CB        46.9410   33.7440   23.8590 C.3    27  VAL27       0.0266
      6  CG1       46.2760   33.1850   25.1000 C.3    27  VAL27       0.0020
      7  CG2       48.1500   34.5570   24.2060 C.3    27  VAL27       0.0020
      8  N         46.7800   30.2960   23.2080 N.am   28  GLY28      -0.1957
      9  CA        46.9340   28.9350   23.7190 C.3    28  GLY28       0.1869
     10  C         45.8960   27.9770   23.1580 C.2    28  GLY28       0.2309
     11  O         44.8570   28.3950   22.6430 O.2    28  GLY28      -0.2863
     12  N         42.3910   29.2030   23.2830 N.3    35  VAL35      -0.1245
     13  CA        42.3220   30.4570   24.0120 C.3    35  VAL35       0.1561
     14  C         42.8450   31.6020   23.1490 C.2    35  VAL35       0.2260
     15  O         43.8760   31.4720   22.4680 O.2    35  VAL35      -0.2867
     16  CB        43.0630   30.3950   25.3890 C.3    35  VAL35       0.0252
     17  CG1       42.8930   31.7030   26.1540 C.3    35  VAL35       0.0019
     18  CG2       42.5430   29.2200   26.2430 C.3    35  VAL35       0.0019
     19  N         43.4880   35.9620   23.3190 N.3    37  ALA37      -0.1245
     20  CA        43.4930   37.2680   23.9400 C.3    37  ALA37       0.1562
     21  C         42.6040   38.1610   23.0690 C.2    37  ALA37       0.2260
     22  O         42.6010   38.0290   21.8390 O.2    37  ALA37      -0.2867
     23  CB        44.9170   37.8230   23.9580 C.3    37  ALA37       0.0290
     24  N         41.4760   44.0430   28.7620 N.3    46  ARG46      -0.1245
     25  CA        42.1290   42.9660   28.0400 C.3    46  ARG46       0.1563
     26  C         41.6190   41.6400   28.6110 C.2    46  ARG46       0.2260
     27  O         41.6670   41.3890   29.8310 O.2    46  ARG46      -0.2867
     28  CB        43.6550   43.0840   28.1360 C.3    46  ARG46       0.0307
     29  CG        44.2200   44.2600   27.3420 C.3    46  ARG46       0.0489
     30  CD        45.7560   44.1710   27.2060 C.3    46  ARG46       0.2205
     31  NE        46.1690   43.2270   26.1530 N.pl3  46  ARG46      -0.0865
     32  CZ        47.4280   42.8400   25.9110 C.cat  46  ARG46       0.5346
     33  NH1       48.4410   43.3160   26.6320 N.pl3  46  ARG46       0.1354
     34  NH2       47.6810   41.9690   24.9350 N.pl3  46  ARG46       0.1354
     35  N         40.8820   37.2030   28.1990 N.3    48  ALA48      -0.1231
     36  CA        41.1460   35.9020   27.6140 C.3    48  ALA48       0.1694
     37  C         39.7740   35.2880   27.2730 C.2    48  ALA48       0.2592
     38  O         38.8560   35.3030   28.0940 O.2    48  ALA48      -0.2718
     39  CB        41.9130   35.0210   28.5940 C.3    48  ALA48       0.0304
     40  N         39.6310   34.8130   26.0340 N.am   49  VAL49      -0.1966
     41  CA        38.4230   34.1440   25.5710 C.3    49  VAL49       0.1727
     42  C         38.7160   32.6580   25.3250 C.2    49  VAL49       0.2616
     43  O         39.5360   32.3160   24.4800 O.2    49  VAL49      -0.2715
     44  CB        37.8460   34.7750   24.2790 C.3    49  VAL49       0.0290
     45  CG1       36.4720   34.1470   23.9410 C.3    49  VAL49       0.0023
     46  CG2       37.7060   36.3080   24.3990 C.3    49  VAL49       0.0023
     47  N         38.0300   31.7760   26.0510 N.am   50  LYS50      -0.1977
     48  CA        38.2280   30.3390   25.8460 C.3    50  LYS50       0.1596
     49  C         37.0420   29.7070   25.1030 C.2    50  LYS50       0.2287
     50  O         35.9050   29.7530   25.5860 O.2    50  LYS50      -0.2864
     51  CB        38.4350   29.6180   27.1920 C.3    50  LYS50       0.0298
     52  CG        38.8790   28.1620   27.0790 C.3    50  LYS50       0.0038
     53  CD        38.5040   27.4380   28.3670 C.3    50  LYS50       0.0206
     54  CE        39.6140   26.5280   28.8500 C.3    50  LYS50       0.1093
     55  NZ        39.1660   25.8470   30.1220 N.3    50  LYS50      -0.1314
     56  N         32.7160   23.1800   34.8800 N.3    68  GLU68      -0.1245
     57  CA        33.6020   24.3120   34.7090 C.3    68  GLU68       0.1567
     58  C         32.7770   25.5690   34.7290 C.2    68  GLU68       0.2260
     59  O         33.1470   26.5500   35.3640 O.2    68  GLU68      -0.2867
     60  CB        34.3560   24.2180   33.3750 C.3    68  GLU68       0.0388
     61  CG        35.0950   25.5420   32.9810 C.3    68  GLU68       0.1160
     62  CD        36.2280   25.3010   31.9800 C.2    68  GLU68       0.3649
     63  OE1       36.2040   24.2450   31.3270 O.co2  68  GLU68      -0.2457
     64  OE2       37.1470   26.1400   31.8720 O.co2  68  GLU68      -0.2457
     65  N         31.5040   26.3450   38.2490 N.3    71  LEU71      -0.1231
     66  CA        32.5710   26.7860   39.1180 C.3    71  LEU71       0.1693
     67  C         32.9680   28.2420   38.8890 C.2    71  LEU71       0.2591
     68  O         33.1170   29.0270   39.8500 O.2    71  LEU71      -0.2718
     69  CB        33.7870   25.8890   38.9290 C.3    71  LEU71       0.0284
     70  CG        34.8040   26.0230   40.0530 C.3    71  LEU71       0.0019
     71  CD1       34.4230   25.0730   41.1780 C.3    71  LEU71       0.0001
     72  CD2       36.1600   25.6980   39.4900 C.3    71  LEU71       0.0001
     73  N         33.1700   28.5900   37.6190 N.am   72  LEU72      -0.1980
     74  CA        33.5490   29.9470   37.2520 C.3    72  LEU72       0.1596
     75  C         32.4890   31.0180   37.5670 C.2    72  LEU72       0.2287
     76  O         32.8360   32.1520   37.9480 O.2    72  LEU72      -0.2864
     77  CB        33.9230   30.0010   35.7620 C.3    72  LEU72       0.0297
     78  CG        35.2080   29.2690   35.3930 C.3    72  LEU72       0.0022
     79  CD1       35.3790   29.2400   33.8680 C.3    72  LEU72       0.0001
     80  CD2       36.4120   29.9220   36.0420 C.3    72  LEU72       0.0001
     81  N         40.4010   33.4410   39.7800 N.3    81  ILE81      -0.1245
     82  CA        39.8490   33.6940   38.4510 C.3    81  ILE81       0.1561
     83  C         38.3260   33.7790   38.5520 C.2    81  ILE81       0.2260
     84  O         37.6860   32.9420   39.1950 O.2    81  ILE81      -0.2867
     85  CB        40.3240   32.6170   37.3990 C.3    81  ILE81       0.0252
     86  CG1       40.0090   33.0680   35.9730 C.3    81  ILE81       0.0019
     87  CG2       39.7870   31.1740   37.7110 C.3    81  ILE81       0.0019
     88  CD1       40.9540   34.0830   35.4740 C.3    81  ILE81       0.0001
     89  N         34.0590   31.1490   27.1340 N.3   101  LEU101     -0.1245
     90  CA        34.2550   31.7170   28.4630 C.3   101  LEU101      0.1561
     91  C         35.1990   32.9180   28.3910 C.2   101  LEU101      0.2260
     92  O         36.2580   32.8290   27.7750 O.2   101  LEU101     -0.2867
     93  CB        34.8440   30.6450   29.3730 C.3   101  LEU101      0.0270
     94  CG        33.9890   29.3710   29.5270 C.3   101  LEU101      0.0019
     95  CD1       34.8020   28.2760   30.2330 C.3   101  LEU101      0.0001
     96  CD2       32.7240   29.7010   30.2590 C.3   101  LEU101      0.0001
     97  N         37.4270   35.7890   30.5950 N.3   103  THR103     -0.1203
     98  CA        37.9950   36.1720   31.8940 C.3   103  THR103      0.1994
     99  C         38.9930   37.3130   31.6770 C.2   103  THR103      0.2618
    100  O         39.3240   37.6320   30.5390 O.2   103  THR103     -0.2717
    101  CB        38.7620   34.9700   32.5470 C.3   103  THR103      0.1784
    102  OG1       39.9280   34.6750   31.7560 O.3   103  THR103     -0.2211
    103  CG2       37.8750   33.7190   32.6150 C.3   103  THR103      0.0376
    104  N         39.5270   37.8920   32.7530 N.am  104  HIS104     -0.1961
    105  CA        40.6730   38.8070   32.6010 C.3   104  HIS104      0.1787
    106  C         41.8370   38.1060   31.8940 C.2   104  HIS104      0.2620
    107  O         42.0620   36.9060   32.1040 O.2   104  HIS104     -0.2715
    108  CB        41.1590   39.3060   33.9680 C.3   104  HIS104      0.0785
    109  CG        40.1940   40.2280   34.6580 C.ar  104  HIS104      0.0821
    110  ND1       40.1010   41.5680   34.3480 N.ar  104  HIS104     -0.2267
    111  CD2       39.2930   40.0050   35.6490 C.ar  104  HIS104      0.1154
    112  CE1       39.1770   42.1290   35.1140 C.ar  104  HIS104      0.1986
    113  NE2       38.6700   41.2030   35.9070 N.ar  104  HIS104     -0.2212
    114  N         42.5640   38.8500   31.0580 N.am  105  LEU105     -0.1963
    115  CA        43.7880   38.3410   30.4370 C.3   105  LEU105      0.1728
    116  C         44.8950   38.3300   31.4940 C.2   105  LEU105      0.2616
    117  O         45.0670   39.3280   32.2060 O.2   105  LEU105     -0.2715
    118  CB        44.1760   39.2150   29.2390 C.3   105  LEU105      0.0311
    119  CG        45.3310   38.7740   28.3400 C.3   105  LEU105      0.0022
    120  CD1       45.0150   37.4580   27.6700 C.3   105  LEU105      0.0001
    121  CD2       45.6450   39.8620   27.3040 C.3   105  LEU105      0.0001
    122  N         45.6430   37.2290   31.5910 N.am  106  MET106     -0.1963
    123  CA        46.5880   37.1180   32.6910 C.3   106  MET106      0.1736
    124  C         48.0330   37.5110   32.3860 C.2   106  MET106      0.2617
    125  O         48.6840   38.1250   33.2380 O.2   106  MET106     -0.2715
    126  CB        46.4800   35.7370   33.3230 C.3   106  MET106      0.0427
    127  CG        45.0430   35.3740   33.6170 C.3   106  MET106      0.0599
    128  SD        44.3650   35.9280   35.1960 S.3   106  MET106     -0.1393
    129  CE        44.6940   37.6850   35.2510 C.3   106  MET106      0.0692
    130  N         48.5210   37.2160   31.1870 N.am  107  GLY107     -0.1955
    131  CA        49.9260   37.5040   30.8350 C.3   107  GLY107      0.1869
    132  C         50.9520   36.6380   31.5760 C.2   107  GLY107      0.2309
    133  O         51.4570   35.6550   31.0060 O.2   107  GLY107     -0.2863
    134  N         44.0360   30.2450   39.0950 N.3   164  LEU164     -0.1231
    135  CA        43.2680   29.7900   37.9530 C.3   164  LEU164      0.1693
    136  C         43.5030   28.3100   37.6680 C.2   164  LEU164      0.2592
    137  O         44.1580   27.6310   38.4510 O.2   164  LEU164     -0.2718
    138  CB        43.5070   30.6850   36.7240 C.3   164  LEU164      0.0284
    139  CG        44.8550   30.7180   36.0090 C.3   164  LEU164      0.0019
    140  CD1       44.5750   30.9010   34.5390 C.3   164  LEU164      0.0001
    141  CD2       45.6670   31.8840   36.5300 C.3   164  LEU164      0.0001
    142  N         42.9150   27.8300   36.5770 N.am  165  ASP165     -0.1960
    143  CA        43.0490   26.4430   36.0900 C.3   165  ASP165      0.1840
    144  C         42.7910   25.4400   37.1980 C.2   165  ASP165      0.2622
    145  O         43.6510   24.6250   37.5500 O.2   165  ASP165     -0.2715
    146  CB        44.3850   26.1870   35.3580 C.3   165  ASP165      0.1450
    147  CG        44.4710   26.8980   34.0010 C.2   165  ASP165      0.3671
    148  OD1       43.4640   27.4520   33.5070 O.co2 165  ASP165     -0.2456
    149  OD2       45.5690   26.9020   33.4080 O.co2 165  ASP165     -0.2456
    150  N         41.5980   25.5310   37.7640 N.am  166  PHE166     -0.1974
    151  CA        41.1320   24.5440   38.7390 C.3   166  PHE166      0.1639
    152  C         41.1870   23.1380   38.1310 C.2   166  PHE166      0.2290
    153  O         40.8560   22.9710   36.9460 O.2   166  PHE166     -0.2864
    154  CB        39.6990   24.8810   39.1630 C.3   166  PHE166      0.0560
    155  CG        39.6270   26.0320   40.1050 C.ar  166  PHE166     -0.0200
    156  CD1       39.8710   27.3370   39.6500 C.ar  166  PHE166     -0.0042
    157  CD2       39.3400   25.8240   41.4590 C.ar  166  PHE166     -0.0042
    158  CE1       39.8310   28.4100   40.5320 C.ar  166  PHE166     -0.0003
    159  CE2       39.2930   26.8940   42.3470 C.ar  166  PHE166     -0.0003
    160  CZ        39.5330   28.1910   41.8790 C.ar  166  PHE166     -0.0000
    161  N         39.8050   19.9920   37.0120 N.3   168  LEU168     -0.1245
    162  CA        38.4160   19.7120   36.6470 C.3   168  LEU168      0.1561
    163  C         38.1890   18.3090   36.1140 C.2   168  LEU168      0.2260
    164  O         37.0500   17.9280   35.7930 O.2   168  LEU168     -0.2867
    165  CB        37.9640   20.6740   35.5540 C.3   168  LEU168      0.0270
    166  CG        37.7220   22.1540   35.8150 C.3   168  LEU168      0.0019
    167  CD1       37.3250   22.7740   34.4850 C.3   168  LEU168      0.0001
    168  CD2       36.6460   22.3960   36.8620 C.3   168  LEU168      0.0001
@<TRIPOS>BOND
     1     1     2    1
     2    22    21    2
     3    15    14    2
     4    11    10    2
     5     2     3    1
     6     2     5    1
     7    21    20    1
     8    14    13    1
     9    10     9    1
    10     8     3   am
    11     8     9    1
    12    12    13    1
    13    19    20    1
    14     3     4    2
    15     5     7    1
    16     5     6    1
    17    20    23    1
    18    45    44    1
    19    13    16    1
    20    44    46    1
    21    44    41    1
    22    43    42    2
    23    34    32    1
    24    49    50    2
    25    49    48    1
    26    42    41    1
    27    42    47   am
    28    16    17    1
    29    16    18    1
    30    41    40    1
    31    48    47    1
    32    48    51    1
    33    32    31    2
    34    32    33    1
    35    40    37   am
    36    31    30    1
    37    52    51    1
    38    52    53    1
    39    89    90    1
    40    30    29    1
    41    37    36    1
    42    37    38    2
    43   121   119    1
    44    29    28    1
    45    36    35    1
    46    36    39    1
    47   120   119    1
    48    92    91    2
    49    25    28    1
    50    25    26    1
    51    25    24    1
    52   119   118    1
    53    53    54    1
    54    91    90    1
    55    90    93    1
    56    26    27    2
    57    54    55    1
    58   118   115    1
    59    93    94    1
    60    94    95    1
    61    94    96    1
    62   115   114    1
    63   115   116    1
    64   100    99    2
    65    97    98    1
    66   131   130    1
    67   131   132    1
    68   133   132    2
    69   114   106   am
    70   130   124   am
    71    63    62   ar
    72   116   122   am
    73   116   117    2
    74   122   123    1
    75    99    98    1
    76    99   104   am
    77   102   101    1
    78    64    62   ar
    79    98   101    1
    80   106   107    2
    81   106   105    1
    82    62    61    1
    83   124   123    1
    84   124   125    2
    85   101   103    1
    86   105   104    1
    87   105   108    1
    88   123   126    1
    89    61    60    1
    90   126   127    1
    91    60    57    1
    92   149   147   ar
    93   148   147   ar
    94   127   128    1
    95    79    78    1
    96   108   109    1
    97   147   146    1
    98   110   109   ar
    99   110   112   ar
   100   167   166    1
   101   140   139    1
   102   109   111   ar
   103    57    58    1
   104    57    56    1
   105    58    59    2
   106   112   113   ar
   107   128   129    1
   108   146   143    1
   109    78    77    1
   110    78    80    1
   111    88    86    1
   112   165   166    1
   113   165   162    1
   114   111   113   ar
   115    77    74    1
   116   164   163    2
   117   166   168    1
   118    86    85    1
   119   139   141    1
   120   139   138    1
   121   143   142    1
   122   143   144    1
   123   163   162    1
   124   142   136   am
   125   162   161    1
   126   138   135    1
   127   153   152    2
   128   144   145    2
   129   144   150   am
   130    74    75    1
   131    74    73    1
   132    85    87    1
   133    85    82    1
   134    75    76    2
   135    73    67   am
   136   136   135    1
   137   136   137    2
   138   150   151    1
   139   135   134    1
   140   152   151    1
   141    65    66    1
   142    82    83    1
   143    82    81    1
   144    83    84    2
   145   151   154    1
   146    67    66    1
   147    67    68    2
   148    69    66    1
   149    69    70    1
   150   154   155    1
   151    72    70    1
   152   156   155   ar
   153   156   158   ar
   154    70    71    1
   155   155   157   ar
   156   158   160   ar
   157   157   159   ar
   158   160   159   ar
