@<TRIPOS>MOLECULE
tmp/2zb1A00.pdb
 171 161 0 0 0
SMALL
GASTEIGER

@<TRIPOS>ATOM
      1  N         46.8550   32.6040   22.9620 N.3    27  VAL27      -0.1245
      2  CA        47.9070   32.6550   23.9930 C.3    27  VAL27       0.1561
      3  C         48.4900   31.2770   24.3390 C.2    27  VAL27       0.2260
      4  O         47.8170   30.4420   24.9530 O.2    27  VAL27      -0.2867
      5  CB        47.4800   33.4390   25.2800 C.3    27  VAL27       0.0252
      6  CG1       47.7000   34.9480   25.1030 C.3    27  VAL27       0.0019
      7  CG2       46.0460   33.1300   25.6790 C.3    27  VAL27       0.0019
      8  N         46.3680   26.4940   28.3060 N.3    30  TYR30      -0.1241
      9  CA        45.1690   26.6250   29.1650 C.3    30  TYR30       0.1605
     10  C         43.8590   26.1570   28.4970 C.2    30  TYR30       0.2264
     11  O         42.7700   26.3050   29.0650 O.2    30  TYR30      -0.2867
     12  CB        45.0420   28.0750   29.6920 C.3    30  TYR30       0.0534
     13  CG        46.2700   28.5520   30.4580 C.ar   30  TYR30      -0.0201
     14  CD1       46.4480   28.2200   31.8090 C.ar   30  TYR30      -0.0009
     15  CD2       47.2580   29.3180   29.8320 C.ar   30  TYR30      -0.0009
     16  CE1       47.5750   28.6400   32.5160 C.ar   30  TYR30       0.0417
     17  CE2       48.3890   29.7390   30.5300 C.ar   30  TYR30       0.0417
     18  CZ        48.5410   29.3990   31.8720 C.ar   30  TYR30       0.1957
     19  OH        49.6580   29.8100   32.5710 O.3    30  TYR30      -0.2866
     20  N         42.3570   29.2650   23.9660 N.3    33  VAL33      -0.1245
     21  CA        42.2360   30.5920   24.5610 C.3    33  VAL33       0.1561
     22  C         42.8530   31.7170   23.7190 C.2    33  VAL33       0.2260
     23  O         43.9420   31.5760   23.1410 O.2    33  VAL33      -0.2867
     24  CB        42.8860   30.6190   25.9870 C.3    33  VAL33       0.0252
     25  CG1       42.7010   31.9770   26.6610 C.3    33  VAL33       0.0019
     26  CG2       42.3310   29.4970   26.8780 C.3    33  VAL33       0.0019
     27  N         40.7080   37.2560   28.5110 N.3    46  ALA46      -0.1245
     28  CA        41.0120   35.9360   27.9610 C.3    46  ALA46       0.1562
     29  C         39.6690   35.3010   27.5560 C.2    46  ALA46       0.2260
     30  O         38.7230   35.2600   28.3490 O.2    46  ALA46      -0.2867
     31  CB        41.7850   35.0660   28.9710 C.3    46  ALA46       0.0290
     32  N         38.0510   31.8850   26.2490 N.3    48  LYS48      -0.1245
     33  CA        38.2260   30.4620   26.0250 C.3    48  LYS48       0.1561
     34  C         36.9740   29.9030   25.3420 C.2    48  LYS48       0.2260
     35  O         35.8600   30.0370   25.8550 O.2    48  LYS48      -0.2867
     36  CB        38.4770   29.7180   27.3380 C.3    48  LYS48       0.0271
     37  CG        38.7360   28.2370   27.1170 C.3    48  LYS48       0.0035
     38  CD        38.3110   27.3780   28.2850 C.3    48  LYS48       0.0206
     39  CE        39.4530   26.9260   29.1510 C.3    48  LYS48       0.1093
     40  NZ        38.8900   25.9410   30.1290 N.3    48  LYS48      -0.1314
     41  N         32.3530   23.2140   34.6890 N.3    66  GLU66      -0.1245
     42  CA        33.1910   24.3870   34.4850 C.3    66  GLU66       0.1567
     43  C         32.4220   25.7100   34.5680 C.2    66  GLU66       0.2260
     44  O         32.8710   26.6490   35.2190 O.2    66  GLU66      -0.2867
     45  CB        33.9370   24.2900   33.1610 C.3    66  GLU66       0.0388
     46  CG        34.7710   25.5210   32.8650 C.3    66  GLU66       0.1160
     47  CD        35.8530   25.2440   31.8590 C.2    66  GLU66       0.3649
     48  OE1       35.9380   24.0820   31.4030 O.co2  66  GLU66      -0.2457
     49  OE2       36.6390   26.1690   31.5470 O.co2  66  GLU66      -0.2457
     50  N         31.2320   26.3040   38.2160 N.3    69  LEU69      -0.1231
     51  CA        32.3710   26.7560   39.0180 C.3    69  LEU69       0.1693
     52  C         32.6880   28.2120   38.7720 C.2    69  LEU69       0.2591
     53  O         32.7760   28.9840   39.7170 O.2    69  LEU69      -0.2718
     54  CB        33.6350   25.9090   38.7570 C.3    69  LEU69       0.0284
     55  CG        33.7640   24.6660   39.6310 C.3    69  LEU69       0.0019
     56  CD1       34.7840   23.6450   39.1040 C.3    69  LEU69       0.0001
     57  CD2       34.0900   25.0720   41.0790 C.3    69  LEU69       0.0001
     58  N         32.8520   28.5870   37.5060 N.am   70  LEU70      -0.1980
     59  CA        33.2200   29.9480   37.1600 C.3    70  LEU70       0.1596
     60  C         32.1580   30.9900   37.5050 C.2    70  LEU70       0.2287
     61  O         32.4980   32.1230   37.9100 O.2    70  LEU70      -0.2864
     62  CB        33.5760   30.0400   35.6850 C.3    70  LEU70       0.0297
     63  CG        34.9160   29.4880   35.2490 C.3    70  LEU70       0.0022
     64  CD1       35.0240   29.7260   33.7630 C.3    70  LEU70       0.0001
     65  CD2       36.0420   30.1820   35.9870 C.3    70  LEU70       0.0001
     66  N         40.0080   33.4730   39.7450 N.3    79  ILE79      -0.1245
     67  CA        39.5480   33.8640   38.4170 C.3    79  ILE79       0.1561
     68  C         38.0120   33.7740   38.4120 C.2    79  ILE79       0.2260
     69  O         37.4330   32.8620   38.9950 O.2    79  ILE79      -0.2867
     70  CB        40.2020   33.0250   37.2720 C.3    79  ILE79       0.0252
     71  CG1       39.9900   33.6840   35.9220 C.3    79  ILE79       0.0019
     72  CG2       39.6730   31.5950   37.2570 C.3    79  ILE79       0.0019
     73  CD1       40.7890   34.9550   35.7280 C.3    79  ILE79       0.0001
     74  N         33.9570   31.4450   27.1470 N.3    99  LEU99      -0.1245
     75  CA        34.1020   31.9790   28.4990 C.3    99  LEU99       0.1561
     76  C         35.0600   33.1740   28.5300 C.2    99  LEU99       0.2260
     77  O         36.1520   33.1120   27.9420 O.2    99  LEU99      -0.2867
     78  CB        34.6260   30.8680   29.4300 C.3    99  LEU99       0.0270
     79  CG        33.7950   29.5780   29.5190 C.3    99  LEU99       0.0019
     80  CD1       34.5400   28.4360   30.2030 C.3    99  LEU99       0.0001
     81  CD2       32.4850   29.8730   30.2120 C.3    99  LEU99       0.0001
     82  N         37.2500   35.9010   30.9190 N.3   101  THR101     -0.1203
     83  CA        37.8090   36.2250   32.2200 C.3   101  THR101      0.1994
     84  C         38.8640   37.3490   32.0540 C.2   101  THR101      0.2618
     85  O         39.1800   37.7740   30.9250 O.2   101  THR101     -0.2717
     86  CB        38.5350   34.9890   32.8470 C.3   101  THR101      0.1784
     87  OG1       39.7880   34.7930   32.1790 O.3   101  THR101     -0.2211
     88  CG2       37.6970   33.6960   32.7630 C.3   101  THR101      0.0376
     89  N         39.4200   37.8130   33.1750 N.am  102  HIS102     -0.1961
     90  CA        40.5150   38.7550   33.1310 C.3   102  HIS102      0.1787
     91  C         41.6890   38.0580   32.4790 C.2   102  HIS102      0.2620
     92  O         41.7830   36.8380   32.5250 O.2   102  HIS102     -0.2715
     93  CB        40.9180   39.1760   34.5470 C.3   102  HIS102      0.0785
     94  CG        39.9230   40.0750   35.2160 C.ar  102  HIS102      0.0821
     95  ND1       39.8230   41.4200   34.9240 N.ar  102  HIS102     -0.2267
     96  CD2       38.9780   39.8190   36.1560 C.ar  102  HIS102      0.1154
     97  CE1       38.8570   41.9500   35.6500 C.ar  102  HIS102      0.1986
     98  NE2       38.3290   41.0010   36.4060 N.ar  102  HIS102     -0.2212
     99  N         42.5690   38.8300   31.8550 N.am  103  LEU103     -0.1963
    100  CA        43.8020   38.3090   31.3050 C.3   103  LEU103      0.1728
    101  C         44.8390   39.0260   32.1250 C.2   103  LEU103      0.2616
    102  O         44.9560   40.2460   32.0580 O.2   103  LEU103     -0.2715
    103  CB        43.9520   38.6710   29.8230 C.3   103  LEU103      0.0311
    104  CG        45.3110   38.3010   29.2120 C.3   103  LEU103      0.0022
    105  CD1       45.3590   36.8250   28.9060 C.3   103  LEU103      0.0001
    106  CD2       45.6620   39.1220   27.9740 C.3   103  LEU103      0.0001
    107  N         45.5650   38.2710   32.9320 N.am  104  MET104     -0.1963
    108  CA        46.6490   38.7700   33.7510 C.3   104  MET104      0.1736
    109  C         47.8740   38.5270   32.8760 C.2   104  MET104      0.2617
    110  O         47.9710   37.4970   32.2010 O.2   104  MET104     -0.2715
    111  CB        46.7480   37.9860   35.0660 C.3   104  MET104      0.0427
    112  CG        45.4280   37.7260   35.8160 C.3   104  MET104      0.0599
    113  SD        44.7890   39.1610   36.7050 S.3   104  MET104     -0.1393
    114  CE        45.7420   39.1480   38.2290 C.3   104  MET104      0.0692
    115  N         48.8080   39.4660   32.8810 N.am  105  GLY105     -0.1940
    116  CA        49.9400   39.4020   31.9630 C.3   105  GLY105      0.2014
    117  C         50.9010   38.2300   32.0440 C.2   105  GLY105      0.2639
    118  O         51.6250   37.9810   31.0860 O.2   105  GLY105     -0.2714
    119  N         50.9610   37.5580   33.1930 N.am  106  ALA106     -0.1963
    120  CA        51.9310   36.4760   33.4020 C.3   106  ALA106      0.1728
    121  C         51.4650   35.4220   34.4180 C.2   106  ALA106      0.2616
    122  O         50.4750   35.6230   35.1170 O.2   106  ALA106     -0.2715
    123  CB        53.2820   37.0590   33.8360 C.3   106  ALA106      0.0334
    124  N         52.1670   34.2920   34.4970 N.am  107  ASP107     -0.1971
    125  CA        51.8470   33.3170   35.5390 C.3   107  ASP107      0.1709
    126  C         52.9590   33.2810   36.5930 C.2   107  ASP107      0.2293
    127  O         53.9760   33.9170   36.4270 O.2   107  ASP107     -0.2864
    128  CB        51.4800   31.9490   34.9580 C.3   107  ASP107      0.1436
    129  CG        52.6250   31.2840   34.2420 C.2   107  ASP107      0.3671
    130  OD1       53.6620   31.0580   34.8870 O.co2 107  ASP107     -0.2456
    131  OD2       52.4720   30.9380   33.0480 O.co2 107  ASP107     -0.2456
    132  N         47.8880   33.2970   38.0820 N.3   152  ALA152     -0.1245
    133  CA        48.0800   34.4340   37.1810 C.3   152  ALA152      0.1562
    134  C         48.4440   35.6760   38.0030 C.2   152  ALA152      0.2260
    135  O         47.9410   35.8590   39.1120 O.2   152  ALA152     -0.2867
    136  CB        46.8200   34.6660   36.4050 C.3   152  ALA152      0.0290
    137  N         43.6670   30.1070   39.0600 N.3   162  LEU162     -0.1231
    138  CA        43.0890   29.6880   37.7860 C.3   162  LEU162      0.1693
    139  C         43.0610   28.1830   37.6710 C.2   162  LEU162      0.2592
    140  O         43.6930   27.4860   38.4550 O.2   162  LEU162     -0.2718
    141  CB        44.0000   30.1430   36.6500 C.3   162  LEU162      0.0284
    142  CG        44.2480   31.5770   36.2440 C.3   162  LEU162      0.0019
    143  CD1       45.3820   31.5480   35.2630 C.3   162  LEU162      0.0001
    144  CD2       43.0290   32.0800   35.5800 C.3   162  LEU162      0.0001
    145  N         42.3770   27.7070   36.6330 N.am  163  ASP163     -0.1960
    146  CA        42.3680   26.3060   36.2490 C.3   163  ASP163      0.1840
    147  C         42.1770   25.3770   37.4080 C.2   163  ASP163      0.2622
    148  O         43.1110   24.6810   37.7880 O.2   163  ASP163     -0.2715
    149  CB        43.6490   25.9100   35.5000 C.3   163  ASP163      0.1450
    150  CG        43.7200   26.4880   34.1050 C.2   163  ASP163      0.3671
    151  OD1       42.6710   26.8660   33.5430 O.co2 163  ASP163     -0.2456
    152  OD2       44.8370   26.5480   33.5500 O.co2 163  ASP163     -0.2456
    153  N         40.9840   25.3710   37.9830 N.am  164  PHE164     -0.1974
    154  CA        40.6590   24.3590   38.9730 C.3   164  PHE164      0.1639
    155  C         40.7630   22.9640   38.3170 C.2   164  PHE164      0.2290
    156  O         40.3040   22.7730   37.1800 O.2   164  PHE164     -0.2864
    157  CB        39.2560   24.6080   39.5270 C.3   164  PHE164      0.0560
    158  CG        39.1280   25.9240   40.2300 C.ar  164  PHE164     -0.0200
    159  CD1       38.9470   27.1050   39.5030 C.ar  164  PHE164     -0.0042
    160  CD2       39.2190   25.9920   41.6090 C.ar  164  PHE164     -0.0042
    161  CE1       38.8340   28.3200   40.1270 C.ar  164  PHE164     -0.0003
    162  CE2       39.1070   27.2090   42.2520 C.ar  164  PHE164     -0.0003
    163  CZ        38.9160   28.3770   41.5020 C.ar  164  PHE164     -0.0000
    164  N         39.6580   19.9220   37.1030 N.3   166  LEU166     -0.1245
    165  CA        38.2920   19.5280   36.9020 C.3   166  LEU166      0.1561
    166  C         38.1440   18.5160   35.7740 C.2   166  LEU166      0.2260
    167  O         38.1010   17.3100   36.0300 O.2   166  LEU166     -0.2867
    168  CB        37.4140   20.7770   36.7160 C.3   166  LEU166      0.0270
    169  CG        37.4370   21.6160   35.4330 C.3   166  LEU166      0.0019
    170  CD1       36.4280   21.0770   34.4340 C.3   166  LEU166      0.0001
    171  CD2       37.1080   23.0510   35.7500 C.3   166  LEU166      0.0001
@<TRIPOS>BOND
     1     1     2    1
     2    23    22    2
     3    22    21    1
     4    20    21    1
     5     2     3    1
     6     2     5    1
     7     3     4    2
     8    21    24    1
     9     6     5    1
    10     5     7    1
    11    34    35    2
    12    34    33    1
    13    24    25    1
    14    24    26    1
    15    33    32    1
    16    33    36    1
    17    37    36    1
    18    37    38    1
    19    74    75    1
    20    29    28    1
    21    29    30    2
    22    77    76    2
    23    28    27    1
    24    28    31    1
    25   106   104    1
    26    38    39    1
    27     8     9    1
    28    10    11    2
    29    10     9    1
    30    75    76    1
    31    75    78    1
    32   105   104    1
    33    39    40    1
    34     9    12    1
    35   104   103    1
    36    78    79    1
    37    79    80    1
    38    79    81    1
    39    12    13    1
    40   103   100    1
    41    15    13   ar
    42    15    17   ar
    43    13    14   ar
    44    17    18   ar
    45    82    83    1
    46    85    84    2
    47   118   117    2
    48   100    99    1
    49   100   101    1
    50    48    47   ar
    51    49    47   ar
    52    14    16   ar
    53    99    91   am
    54    47    46    1
    55    18    16   ar
    56    18    19    1
    57   116   117    1
    58   116   115    1
    59   117   119   am
    60    84    83    1
    61    84    89   am
    62   102   101    2
    63   101   107   am
    64    87    86    1
    65   110   109    2
    66    83    86    1
    67    91    92    2
    68    91    90    1
    69    88    86    1
    70    46    45    1
    71   109   115   am
    72   109   108    1
    73   107   108    1
    74   131   129   ar
    75    90    89    1
    76    90    93    1
    77    45    42    1
    78   119   120    1
    79   120   123    1
    80   120   121    1
    81   151   150   ar
    82   152   150   ar
    83   108   111    1
    84    64    63    1
    85   150   149    1
    86   129   130   ar
    87   129   128    1
    88   121   124   am
    89   121   122    2
    90   170   169    1
    91    42    43    1
    92    42    41    1
    93   124   125    1
    94    93    94    1
    95    43    44    2
    96    95    94   ar
    97    95    97   ar
    98   128   125    1
    99   111   112    1
   100    94    96   ar
   101    63    62    1
   102    63    65    1
   103   143   142    1
   104   169   171    1
   105   169   168    1
   106   149   146    1
   107   125   126    1
   108   144   142    1
   109    97    98   ar
   110    62    59    1
   111    73    71    1
   112   166   167    2
   113   166   165    1
   114   112   113    1
   115    71    70    1
   116    96    98   ar
   117   142   141    1
   118   146   145    1
   119   146   147    1
   120   136   133    1
   121   127   126    2
   122   145   139   am
   123   141   138    1
   124   113   114    1
   125   168   165    1
   126   165   164    1
   127    59    60    1
   128    59    58    1
   129   156   155    2
   130   133   134    1
   131   133   132    1
   132    72    70    1
   133    70    67    1
   134   147   148    2
   135   147   153   am
   136    60    61    2
   137    58    52   am
   138   139   138    1
   139   139   140    2
   140   138   137    1
   141   153   154    1
   142   134   135    2
   143    50    51    1
   144   155   154    1
   145    68    67    1
   146    68    69    2
   147    67    66    1
   148    54    51    1
   149    54    55    1
   150    52    51    1
   151    52    53    2
   152   154   157    1
   153    56    55    1
   154   159   161   ar
   155   159   158   ar
   156   157   158    1
   157    55    57    1
   158   161   163   ar
   159   158   160   ar
   160   163   162   ar
   161   160   162   ar
