@<TRIPOS>MOLECULE
tmp/2zb2A00.pdb
 117 111 0 0 0
SMALL
GASTEIGER

@<TRIPOS>ATOM
      1  N         11.1640   23.6030   21.3390 N.3   113  GLY113     -0.1210
      2  CA        10.4890   22.5680   22.1040 C.3   113  GLY113      0.1956
      3  C         10.1550   22.9660   23.5340 C.2   113  GLY113      0.2612
      4  O         10.9810   23.5540   24.2460 O.2   113  GLY113     -0.2717
      5  N          8.9460   22.6440   23.9720 N.am  114  GLY114     -0.1942
      6  CA         8.5350   22.9760   25.3280 C.3   114  GLY114      0.2014
      7  C          8.1020   24.4260   25.4270 C.2   114  GLY114      0.2638
      8  O          6.9010   24.7440   25.4570 O.2   114  GLY114     -0.2714
      9  N          9.1050   25.2980   25.4700 N.am  115  LEU115     -0.1977
     10  CA         8.9370   26.7460   25.5420 C.3   115  LEU115      0.1596
     11  C          8.0640   27.2450   24.3780 C.2   115  LEU115      0.2287
     12  O          7.0020   27.8270   24.5820 O.2   115  LEU115     -0.2864
     13  CB        10.3460   27.4020   25.4830 C.3   115  LEU115      0.0297
     14  CG        10.5700   28.9100   25.4240 C.3   115  LEU115      0.0022
     15  CD1       10.0110   29.5680   26.6750 C.3   115  LEU115      0.0001
     16  CD2       12.0700   29.1740   25.2990 C.3   115  LEU115      0.0001
     17  N          4.5730   25.8190   24.4230 N.3   118  LEU118     -0.1245
     18  CA         3.7090   26.3230   25.4830 C.3   118  LEU118      0.1561
     19  C          2.9970   27.5580   24.9530 C.2   118  LEU118      0.2260
     20  O          1.8660   27.8370   25.2980 O.2   118  LEU118     -0.2867
     21  CB         4.5420   26.6880   26.7200 C.3   118  LEU118      0.0270
     22  CG         3.7790   27.1260   27.9870 C.3   118  LEU118      0.0019
     23  CD1        3.1630   25.8940   28.6210 C.3   118  LEU118      0.0001
     24  CD2        4.7010   27.8240   28.9810 C.3   118  LEU118      0.0001
     25  N         18.0650   24.4580   22.5950 N.3   255  ASP255     -0.1225
     26  CA        17.0680   24.2050   23.6150 C.3   255  ASP255      0.1805
     27  C         17.8420   24.2870   24.9330 C.2   255  ASP255      0.2597
     28  O         18.9300   23.7030   25.0660 O.2   255  ASP255     -0.2718
     29  CB        16.4320   22.8100   23.4080 C.3   255  ASP255      0.1424
     30  CG        15.2670   22.5570   24.3430 C.2   255  ASP255      0.3668
     31  OD1       15.4370   21.8200   25.3330 O.co2 255  ASP255     -0.2456
     32  OD2       14.1750   23.1100   24.0940 O.co2 255  ASP255     -0.2456
     33  N         17.3010   25.0330   25.8890 N.am  256  ASN256     -0.1974
     34  CA        17.9620   25.2190   27.1760 C.3   256  ASN256      0.1688
     35  C         19.4620   25.4630   27.0620 C.2   256  ASN256      0.2292
     36  O         20.2580   24.7760   27.7060 O.2   256  ASN256     -0.2864
     37  CB        17.7150   24.0200   28.0820 C.3   256  ASN256      0.1181
     38  CG        16.2700   23.8980   28.4820 C.2   256  ASN256      0.2629
     39  OD1       15.4630   23.3100   27.7620 O.2   256  ASN256     -0.2716
     40  ND2       15.9270   24.4740   29.6290 N.am  256  ASN256     -0.0877
     41  N         11.7710   29.4630   32.7170 N.3   345  HIS345     -0.1241
     42  CA        11.6340   28.1060   32.2100 C.3   345  HIS345      0.1621
     43  C         12.8040   27.1850   32.5220 C.2   345  HIS345      0.2264
     44  O         12.7990   26.0500   32.1070 O.2   345  HIS345     -0.2867
     45  CB        11.4520   28.1480   30.7100 C.3   345  HIS345      0.0745
     46  CG        10.2670   28.9410   30.2630 C.ar  345  HIS345      0.0817
     47  ND1        8.9970   28.4080   30.1970 N.ar  345  HIS345     -0.2268
     48  CD2       10.1670   30.2140   29.8180 C.ar  345  HIS345      0.1154
     49  CE1        8.1700   29.3190   29.7210 C.ar  345  HIS345      0.1986
     50  NE2        8.8540   30.4230   29.4820 N.ar  345  HIS345     -0.2212
     51  N          7.0140   27.2480   36.0640 N.3   423  VAL423     -0.1245
     52  CA         6.0150   26.4860   35.3350 C.3   423  VAL423      0.1561
     53  C          5.6660   25.1640   35.9900 C.2   423  VAL423      0.2260
     54  O          5.1290   24.2770   35.3490 O.2   423  VAL423     -0.2867
     55  CB         6.5060   26.2160   33.8960 C.3   423  VAL423      0.0252
     56  CG1        6.5070   27.5230   33.0990 C.3   423  VAL423      0.0019
     57  CG2        7.9100   25.5910   33.9350 C.3   423  VAL423      0.0019
     58  N          2.4300   24.3270   34.0870 N.3   452  ASN452     -0.1240
     59  CA         2.1760   24.2970   32.6530 C.3   452  ASN452      0.1653
     60  C          0.9690   23.4550   32.2770 C.2   452  ASN452      0.2266
     61  O          0.3590   22.7950   33.1290 O.2   452  ASN452     -0.2867
     62  CB         3.4230   23.7990   31.9020 C.3   452  ASN452      0.1155
     63  CG         4.4030   24.9190   31.5960 C.2   452  ASN452      0.2627
     64  OD1        5.5460   24.6800   31.2640 O.2   452  ASN452     -0.2716
     65  ND2        3.9350   26.1550   31.6900 N.am  452  ASN452     -0.0877
     66  N         20.7220   16.1730   30.2090 N.3   541  TYR541     -0.1227
     67  CA        19.8500   16.2880   31.3790 C.3   541  TYR541      0.1736
     68  C         18.5540   15.5030   31.2250 C.2   541  TYR541      0.2595
     69  O         18.0510   14.9500   32.1970 O.2   541  TYR541     -0.2718
     70  CB        19.5570   17.8220   31.7290 C.3   541  TYR541      0.0548
     71  CG        18.2890   18.4360   31.1680 C.ar  541  TYR541     -0.0200
     72  CD1       17.0320   18.1120   31.7040 C.ar  541  TYR541     -0.0009
     73  CD2       18.3470   19.3940   30.1530 C.ar  541  TYR541     -0.0009
     74  CE1       15.8710   18.7300   31.2510 C.ar  541  TYR541      0.0417
     75  CE2       17.1890   20.0180   29.6880 C.ar  541  TYR541      0.0417
     76  CZ        15.9600   19.6810   30.2440 C.ar  541  TYR541      0.1957
     77  OH        14.8230   20.3000   29.8060 O.3   541  TYR541     -0.2866
     78  N         18.0170   15.4440   30.0050 N.am  542  LYS542     -0.1980
     79  CA        16.7870   14.6880   29.7540 C.3   542  LYS542      0.1596
     80  C         17.1280   13.2010   29.8160 C.2   542  LYS542      0.2287
     81  O         16.2530   12.3350   29.9920 O.2   542  LYS542     -0.2864
     82  CB        16.1940   15.0720   28.4020 C.3   542  LYS542      0.0298
     83  CG        15.4990   16.4280   28.4380 C.3   542  LYS542      0.0038
     84  CD        15.1290   16.9360   27.0440 C.3   542  LYS542      0.0206
     85  CE        14.3620   18.2580   27.1090 C.3   542  LYS542      0.1093
     86  NZ        13.0310   18.1080   27.7710 N.3   542  LYS542     -0.1314
     87  N         14.3700   19.2380   34.8540 N.3   640  GLU640     -0.1231
     88  CA        13.1990   19.6160   34.0580 C.3   640  GLU640      0.1699
     89  C         12.3250   20.6190   34.8240 C.2   640  GLU640      0.2592
     90  O         11.7120   20.2750   35.8260 O.2   640  GLU640     -0.2718
     91  CB        12.3340   18.3740   33.7120 C.3   640  GLU640      0.0402
     92  CG        12.7540   17.6000   32.4780 C.3   640  GLU640      0.1161
     93  CD        12.4630   18.3220   31.1650 C.2   640  GLU640      0.3649
     94  OE1       12.1310   17.6080   30.1930 O.co2 640  GLU640     -0.2457
     95  OE2       12.5720   19.5730   31.0840 O.co2 640  GLU640     -0.2457
     96  N         12.2580   21.8530   34.3470 N.am  641  ALA641     -0.1966
     97  CA        11.4340   22.8340   35.0260 C.3   641  ALA641      0.1728
     98  C          9.9930   22.3310   35.1100 C.2   641  ALA641      0.2617
     99  O          9.2990   22.5910   36.0750 O.2   641  ALA641     -0.2715
    100  CB        11.4860   24.1520   34.2940 C.3   641  ALA641      0.0334
    101  N          9.5520   21.6100   34.0840 N.am  642  SER642     -0.1936
    102  CA         8.1980   21.0740   34.0770 C.3   642  SER642      0.2055
    103  C          7.9750   19.9470   33.0790 C.2   642  SER642      0.2644
    104  O          7.6780   18.8130   33.4510 O.2   642  SER642     -0.2714
    105  CB         7.2000   22.1750   33.7760 C.3   642  SER642      0.2130
    106  OG         5.8960   21.6340   33.5990 O.3   642  SER642     -0.2179
    107  N          8.1030   20.2820   31.8040 N.am  643  GLY643     -0.1939
    108  CA         7.8650   19.3040   30.7680 C.3   643  GLY643      0.2014
    109  C          6.3900   19.3710   30.4100 C.2   643  GLY643      0.2639
    110  O          5.5630   19.6680   31.2590 O.2   643  GLY643     -0.2714
    111  N          6.0630   19.1170   29.1500 N.am  644  THR644     -0.1950
    112  CA         4.6760   19.1400   28.7140 C.3   644  THR644      0.1897
    113  C          4.3970   17.8410   27.9670 C.2   644  THR644      0.2313
    114  O          3.2510   17.3910   27.8740 O.2   644  THR644     -0.2863
    115  CB         4.3710   20.3720   27.7940 C.3   644  THR644      0.1794
    116  OG1        5.2490   20.3680   26.6640 O.3   644  THR644     -0.2208
    117  CG2        4.5670   21.6770   28.5670 C.3   644  THR644      0.0378
@<TRIPOS>BOND
     1     1     2    1
     2     2     3    1
     3    25    26    1
     4    29    26    1
     5    29    30    1
     6     3     5   am
     7     3     4    2
     8    26    27    1
     9     5     6    1
    10    32    30   ar
    11    30    31   ar
    12    11    12    2
    13    11    10    1
    14    17    18    1
    15    27    28    2
    16    27    33   am
    17    19    20    2
    18    19    18    1
    19    16    14    1
    20     6     7    1
    21    14    13    1
    22    14    15    1
    23     7     8    2
    24     7     9   am
    25     9    10    1
    26    18    21    1
    27    13    10    1
    28    33    34    1
    29   116   115    1
    30    21    22    1
    31    84    85    1
    32    84    83    1
    33    35    34    1
    34    35    36    2
    35    85    86    1
    36    34    37    1
    37    39    38    2
    38   115   117    1
    39   115   112    1
    40   114   113    2
    41   113   112    1
    42    22    23    1
    43    22    24    1
    44    37    38    1
    45    82    83    1
    46    82    79    1
    47    38    40   am
    48   112   111    1
    49   111   109   am
    50    50    49   ar
    51    50    48   ar
    52    75    73   ar
    53    75    76   ar
    54    49    47   ar
    55    79    80    1
    56    79    78    1
    57    77    76    1
    58    80    81    2
    59    48    46   ar
    60    78    68   am
    61    73    71   ar
    62    94    93   ar
    63    47    46   ar
    64    66    67    1
    65    76    74   ar
    66    46    45    1
    67   109   108    1
    68   109   110    2
    69    45    42    1
    70   108   107    1
    71    95    93   ar
    72    93    92    1
    73    71    72   ar
    74    71    70    1
    75    68    67    1
    76    68    69    2
    77    74    72   ar
    78    64    63    2
    79    67    70    1
    80    63    65   am
    81    63    62    1
    82   107   103   am
    83    62    59    1
    84    44    43    2
    85    42    43    1
    86    42    41    1
    87    60    59    1
    88    60    61    2
    89    92    91    1
    90    59    58    1
    91   103   104    2
    92   103   102    1
    93    56    55    1
    94   106   105    1
    95    91    88    1
    96   105   102    1
    97    55    57    1
    98    55    52    1
    99    88    89    1
   100    88    87    1
   101   102   101    1
   102   101    98   am
   103   100    97    1
   104    96    89   am
   105    96    97    1
   106    89    90    2
   107    97    98    1
   108    98    99    2
   109    52    53    1
   110    52    51    1
   111    54    53    2
