@<TRIPOS>MOLECULE
tmp/2zb2A04.pdb
 96 96 0 0 0
SMALL
GASTEIGER

@<TRIPOS>ATOM
      1  N        -10.0780   29.0750   -9.6200 N.3    16  PHE16      -0.1227
      2  CA        -9.7070   30.4820   -9.4940 C.3    16  PHE16       0.1736
      3  C         -8.4220   30.7710   -8.7110 C.2    16  PHE16       0.2596
      4  O         -7.6890   31.6790   -9.0440 O.2    16  PHE16      -0.2718
      5  CB       -10.8810   31.2850   -8.8350 C.3    16  PHE16       0.0547
      6  CG       -12.0790   31.4800   -9.7250 C.ar   16  PHE16      -0.0202
      7  CD1      -12.0120   32.3310  -10.8290 C.ar   16  PHE16      -0.0042
      8  CD2      -13.2970   30.8620   -9.4240 C.ar   16  PHE16      -0.0042
      9  CE1      -13.1490   32.5760  -11.6270 C.ar   16  PHE16      -0.0003
     10  CE2      -14.4390   31.0950  -10.2070 C.ar   16  PHE16      -0.0003
     11  CZ       -14.3640   31.9570  -11.3110 C.ar   16  PHE16      -0.0000
     12  N         -8.1610   29.9910   -7.6680 N.am   17  THR17      -0.1939
     13  CA        -6.9820   30.2080   -6.8410 C.3    17  THR17       0.2028
     14  C         -5.7450   29.4020   -7.2540 C.2    17  THR17       0.2642
     15  O         -4.6300   29.8720   -7.1160 O.2    17  THR17      -0.2714
     16  CB        -7.3110   29.9140   -5.3700 C.3    17  THR17       0.1808
     17  OG1       -8.5150   30.6070   -5.0110 O.3    17  THR17      -0.2208
     18  CG2       -6.1740   30.3670   -4.4650 C.3    17  THR17       0.0379
     19  N         -5.9410   28.1880   -7.7500 N.am   18  LEU18      -0.1963
     20  CA        -4.8000   27.3810   -8.1570 C.3    18  LEU18       0.1728
     21  C         -4.6650   27.2840   -9.6730 C.2    18  LEU18       0.2616
     22  O         -3.6830   26.8200  -10.1720 O.2    18  LEU18      -0.2715
     23  CB        -4.8790   25.9420   -7.5100 C.3    18  LEU18       0.0311
     24  CG        -4.3930   25.8270   -6.0300 C.3    18  LEU18       0.0022
     25  CD1       -3.0210   26.4800   -5.8970 C.3    18  LEU18       0.0001
     26  CD2       -5.3670   26.5020   -5.0950 C.3    18  LEU18       0.0001
     27  N         -5.6840   27.7490  -10.3870 N.am   19  VAL19      -0.1977
     28  CA        -5.6880   27.7220  -11.8440 C.3    19  VAL19       0.1596
     29  C         -5.4330   26.2850  -12.3060 C.2    19  VAL19       0.2287
     30  O         -4.5120   26.0200  -13.0820 O.2    19  VAL19      -0.2864
     31  CB        -4.5850   28.6480  -12.4270 C.3    19  VAL19       0.0276
     32  CG1       -4.8500   28.9190  -13.8840 C.3    19  VAL19       0.0022
     33  CG2       -4.5240   29.9490  -11.6590 C.3    19  VAL19       0.0022
     34  N         -3.8780   22.9820   -0.9420 N.3    32  PHE32      -0.1241
     35  CA        -4.0800   24.4200   -0.9760 C.3    32  PHE32       0.1605
     36  C         -5.5500   24.7940   -1.1370 C.2    32  PHE32       0.2264
     37  O         -6.0410   25.6570   -0.4290 O.2    32  PHE32      -0.2867
     38  CB        -3.2420   25.0660   -2.1060 C.3    32  PHE32       0.0534
     39  CG        -1.7920   25.2930   -1.7420 C.ar   32  PHE32      -0.0203
     40  CD1       -1.4460   25.7940   -0.4830 C.ar   32  PHE32      -0.0042
     41  CD2       -0.7730   25.0240   -2.6640 C.ar   32  PHE32      -0.0042
     42  CE1       -0.1050   26.0210   -0.1430 C.ar   32  PHE32      -0.0003
     43  CE2        0.5730   25.2480   -2.3370 C.ar   32  PHE32      -0.0003
     44  CZ         0.9120   25.7460   -1.0770 C.ar   32  PHE32      -0.0000
     45  N         -7.7660   26.8520    1.6760 N.3    36  HIS36      -0.1241
     46  CA        -8.4400   28.0990    1.3390 C.3    36  HIS36       0.1621
     47  C         -9.9310   28.0100    1.6330 C.2    36  HIS36       0.2264
     48  O        -10.5310   28.9790    2.1070 O.2    36  HIS36      -0.2867
     49  CB        -8.1940   28.4480   -0.1450 C.3    36  HIS36       0.0745
     50  CG        -6.8930   29.1510   -0.3880 C.ar   36  HIS36       0.0817
     51  ND1       -6.8030   30.5190   -0.5290 N.ar   36  HIS36      -0.2268
     52  CD2       -5.6260   28.6810   -0.4660 C.ar   36  HIS36       0.1154
     53  CE1       -5.5360   30.8620   -0.6760 C.ar   36  HIS36       0.1986
     54  NE2       -4.7990   29.7660   -0.6400 N.ar   36  HIS36      -0.2212
     55  N        -10.1320   28.0430    5.3660 N.3    39  ARG39      -0.1245
     56  CA        -9.6970   29.3540    5.8450 C.3    39  ARG39       0.1563
     57  C        -10.7800   30.4290    5.7050 C.2    39  ARG39       0.2260
     58  O        -10.8600   31.3330    6.5090 O.2    39  ARG39      -0.2867
     59  CB        -8.4390   29.8010    5.0860 C.3    39  ARG39       0.0307
     60  CG        -7.8310   31.1090    5.5890 C.3    39  ARG39       0.0489
     61  CD        -6.6940   31.5660    4.6690 C.3    39  ARG39       0.2205
     62  NE        -7.1980   32.1260    3.4140 N.pl3  39  ARG39      -0.0865
     63  CZ        -6.4270   32.5270    2.4050 C.cat  39  ARG39       0.5346
     64  NH1       -5.1010   32.4180    2.4870 N.pl3  39  ARG39       0.1354
     65  NH2       -6.9830   33.0740    1.3280 N.pl3  39  ARG39       0.1354
     66  N          6.6900   26.9630   -0.7170 N.3   164  TYR164     -0.1227
     67  CA         5.4760   26.9780   -1.5180 C.3   164  TYR164      0.1736
     68  C          4.4160   27.9300   -0.9850 C.2   164  TYR164      0.2596
     69  O          3.2780   27.8890   -1.4360 O.2   164  TYR164     -0.2718
     70  CB         4.8960   25.5610   -1.6210 C.3   164  TYR164      0.0548
     71  CG         5.9220   24.5020   -1.9330 C.ar  164  TYR164     -0.0200
     72  CD1        6.7780   24.6380   -3.0280 C.ar  164  TYR164     -0.0009
     73  CD2        6.0410   23.3590   -1.1320 C.ar  164  TYR164     -0.0009
     74  CE1        7.7290   23.6650   -3.3200 C.ar  164  TYR164      0.0417
     75  CE2        6.9910   22.3780   -1.4180 C.ar  164  TYR164      0.0417
     76  CZ         7.8270   22.5400   -2.5120 C.ar  164  TYR164      0.1957
     77  OH         8.7560   21.5680   -2.8080 O.3   164  TYR164     -0.2866
     78  N          4.7890   28.7800   -0.0300 N.am  165  GLY165     -0.1942
     79  CA         3.8370   29.7240    0.5330 C.3   165  GLY165      0.2014
     80  C          3.0370   29.1780    1.7080 C.2   165  GLY165      0.2639
     81  O          2.8650   27.9710    1.8440 O.2   165  GLY165     -0.2714
     82  N          2.5480   30.0740    2.5610 N.am  166  ASN166     -0.1958
     83  CA         1.7590   29.6900    3.7350 C.3   166  ASN166      0.1804
     84  C          0.4110   30.3820    3.6260 C.2   166  ASN166      0.2463
     85  O          0.3220   31.5970    3.7350 O.2   166  ASN166     -0.2730
     86  CB         2.5120   30.1070    5.0470 C.3   166  ASN166      0.1195
     87  CG         1.5970   30.2150    6.2650 C.2   166  ASN166      0.2630
     88  OD1        0.5620   29.5800    6.3440 O.2   166  ASN166     -0.2716
     89  ND2        2.0130   31.0270    7.2340 N.am  166  ASN166     -0.0877
     90  N         -0.6600   29.6050    3.3920 N.am  167  PRO167     -0.2727
     91  CA        -1.9990   30.1880    3.2640 C.3   167  PRO167      0.1402
     92  C         -2.5550   30.7000    4.5770 C.2   167  PRO167      0.2269
     93  O         -3.4700   31.5060    4.5900 O.2   167  PRO167     -0.2865
     94  CB        -2.8270   29.0330    2.6940 C.3   167  PRO167      0.0296
     95  CG        -2.1820   27.8400    3.3220 C.3   167  PRO167      0.0237
     96  CD        -0.6990   28.1480    3.1800 C.3   167  PRO167      0.0939
@<TRIPOS>BOND
     1    32    31    1
     2    30    29    2
     3    31    28    1
     4    31    33    1
     5    29    28    1
     6    28    27    1
     7     9    11   ar
     8     9     7   ar
     9    11    10   ar
    10     7     6   ar
    11    27    21   am
    12    10     8   ar
    13    22    21    2
    14     6     8   ar
    15     6     5    1
    16    21    20    1
    17     1     2    1
    18     2     5    1
    19     2     3    1
    20     4     3    2
    21     3    12   am
    22    20    19    1
    23    20    23    1
    24    19    14   am
    25    12    13    1
    26    23    24    1
    27    14    15    2
    28    14    13    1
    29    13    16    1
    30    24    25    1
    31    24    26    1
    32    16    17    1
    33    16    18    1
    34    74    72   ar
    35    74    76   ar
    36    72    71   ar
    37    77    76    1
    38    41    43   ar
    39    41    39   ar
    40    76    75   ar
    41    43    44   ar
    42    38    39    1
    43    38    35    1
    44    71    70    1
    45    71    73   ar
    46    39    40   ar
    47    70    67    1
    48    67    68    1
    49    67    66    1
    50    69    68    2
    51    75    73   ar
    52    36    35    1
    53    36    37    2
    54    44    42   ar
    55    68    78   am
    56    35    34    1
    57    53    54   ar
    58    53    51   ar
    59    54    52   ar
    60    51    50   ar
    61    40    42   ar
    62    52    50   ar
    63    50    49    1
    64    49    46    1
    65    78    79    1
    66    79    80    1
    67    65    63    1
    68    46    47    1
    69    46    45    1
    70    47    48    2
    71    80    81    2
    72    80    82   am
    73    63    64    1
    74    63    62    2
    75    82    83    1
    76    94    91    1
    77    94    95    1
    78    96    95    1
    79    96    90    1
    80    91    90    1
    81    91    92    1
    82    90    84   am
    83    62    61    1
    84    84    83    1
    85    84    85    2
    86    83    86    1
    87    92    93    2
    88    61    60    1
    89    86    87    1
    90    59    60    1
    91    59    56    1
    92    55    56    1
    93    57    56    1
    94    57    58    2
    95    87    88    2
    96    87    89   am
