@<TRIPOS>MOLECULE
tmp/2zb2A03.pdb
 100 101 0 0 0
SMALL
GASTEIGER

@<TRIPOS>ATOM
      1  N        -10.1320   28.0430    5.3660 N.3    39  ARG39      -0.1245
      2  CA        -9.6970   29.3540    5.8450 C.3    39  ARG39       0.1563
      3  C        -10.7800   30.4290    5.7050 C.2    39  ARG39       0.2260
      4  O        -10.8600   31.3330    6.5090 O.2    39  ARG39      -0.2867
      5  CB        -8.4390   29.8010    5.0860 C.3    39  ARG39       0.0307
      6  CG        -7.8310   31.1090    5.5890 C.3    39  ARG39       0.0489
      7  CD        -6.6940   31.5660    4.6690 C.3    39  ARG39       0.2205
      8  NE        -7.1980   32.1260    3.4140 N.pl3  39  ARG39      -0.0865
      9  CZ        -6.4270   32.5270    2.4050 C.cat  39  ARG39       0.5346
     10  NH1       -5.1010   32.4180    2.4870 N.pl3  39  ARG39       0.1354
     11  NH2       -6.9830   33.0740    1.3280 N.pl3  39  ARG39       0.1354
     12  N        -13.0360   31.4540    8.5670 N.3    42  LEU42      -0.1231
     13  CA       -12.4060   32.1790    9.6590 C.3    42  LEU42       0.1693
     14  C        -12.5340   33.6950    9.5590 C.2    42  LEU42       0.2591
     15  O        -12.6100   34.4030   10.5860 O.2    42  LEU42      -0.2718
     16  CB       -10.9080   31.8310    9.7290 C.3    42  LEU42       0.0284
     17  CG       -10.4370   30.4970   10.3310 C.3    42  LEU42       0.0019
     18  CD1       -8.9490   30.3200   10.0570 C.3    42  LEU42       0.0001
     19  CD2      -10.6970   30.4720   11.8140 C.3    42  LEU42       0.0001
     20  N        -12.5630   34.2070    8.3320 N.am   43  VAL43      -0.1980
     21  CA       -12.6180   35.6480    8.1350 C.3    43  VAL43       0.1595
     22  C        -13.7180   36.3840    8.9030 C.2    43  VAL43       0.2287
     23  O        -13.4320   37.3600    9.6000 O.2    43  VAL43      -0.2864
     24  CB       -12.6780   36.0030    6.6190 C.3    43  VAL43       0.0276
     25  CG1      -11.4460   35.4460    5.9100 C.3    43  VAL43       0.0022
     26  CG2      -13.9170   35.4320    5.9980 C.3    43  VAL43       0.0022
     27  N        -13.0430   36.3800   12.5580 N.3    46  TRP46      -0.1241
     28  CA       -11.7690   37.0310   12.8430 C.3    46  TRP46       0.1605
     29  C        -11.9180   38.5520   12.7960 C.2    46  TRP46       0.2264
     30  O        -11.3500   39.2730   13.6110 O.2    46  TRP46      -0.2867
     31  CB       -10.7250   36.5860   11.8590 C.3    46  TRP46       0.0550
     32  CG        -9.3320   36.9400   12.2540 C.ar   46  TRP46       0.0003
     33  CD1       -8.9010   37.3310   13.4940 C.ar   46  TRP46       0.0946
     34  CD2       -8.1610   36.8280   11.4390 C.ar   46  TRP46       0.0152
     35  NE1       -7.5290   37.4600   13.5030 N.ar   46  TRP46      -0.2442
     36  CE2       -7.0520   37.1600   12.2510 C.ar   46  TRP46       0.0810
     37  CE3       -7.9400   36.4750   10.1000 C.ar   46  TRP46       0.0012
     38  CZ2       -5.7390   37.1510   11.7590 C.ar   46  TRP46       0.0191
     39  CZ3       -6.6300   36.4650    9.6130 C.ar   46  TRP46       0.0001
     40  CH2       -5.5510   36.8010   10.4430 C.ar   46  TRP46       0.0015
     41  N          2.5480   30.0740    2.5610 N.3   166  ASN166     -0.1226
     42  CA         1.7590   29.6900    3.7350 C.3   166  ASN166      0.1770
     43  C          0.4110   30.3820    3.6260 C.2   166  ASN166      0.2439
     44  O          0.3220   31.5970    3.7350 O.2   166  ASN166     -0.2733
     45  CB         2.5120   30.1070    5.0470 C.3   166  ASN166      0.1168
     46  CG         1.5970   30.2150    6.2650 C.2   166  ASN166      0.2627
     47  OD1        0.5620   29.5800    6.3440 O.2   166  ASN166     -0.2716
     48  ND2        2.0130   31.0270    7.2340 N.am  166  ASN166     -0.0877
     49  N         -0.6600   29.6050    3.3920 N.am  167  PRO167     -0.2718
     50  CA        -1.9990   30.1880    3.2640 C.3   167  PRO167      0.1535
     51  C         -2.5550   30.7000    4.5770 C.2   167  PRO167      0.2599
     52  O         -3.4700   31.5060    4.5900 O.2   167  PRO167     -0.2715
     53  CB        -2.8270   29.0330    2.6940 C.3   167  PRO167      0.0310
     54  CG        -2.1820   27.8400    3.3220 C.3   167  PRO167      0.0237
     55  CD        -0.6990   28.1480    3.1800 C.3   167  PRO167      0.0939
     56  N         -1.9820   30.2390    5.6810 N.am  168  TRP168     -0.1960
     57  CA        -2.4690   30.6500    6.9870 C.3   168  TRP168      0.1771
     58  C         -1.9610   31.9900    7.4900 C.2   168  TRP168      0.2620
     59  O         -2.2150   32.3480    8.6300 O.2   168  TRP168     -0.2715
     60  CB        -2.1770   29.5800    7.9850 C.3   168  TRP168      0.0590
     61  CG        -2.7030   28.2600    7.5170 C.ar  168  TRP168      0.0006
     62  CD1       -1.9720   27.2030    7.0460 C.ar  168  TRP168      0.0946
     63  CD2       -4.0780   27.8910    7.3890 C.ar  168  TRP168      0.0152
     64  NE1       -2.8130   26.1970    6.6290 N.ar  168  TRP168     -0.2442
     65  CE2       -4.1110   26.5940    6.8290 C.ar  168  TRP168      0.0810
     66  CE3       -5.2830   28.5330    7.6900 C.ar  168  TRP168      0.0012
     67  CZ2       -5.3150   25.9210    6.5620 C.ar  168  TRP168      0.0191
     68  CZ3       -6.4860   27.8660    7.4240 C.ar  168  TRP168      0.0001
     69  CH2       -6.4870   26.5720    6.8650 C.ar  168  TRP168      0.0015
     70  N         -1.2580   32.7390    6.6440 N.am  169  GLU169     -0.1963
     71  CA        -0.7620   34.0460    7.0630 C.3   169  GLU169      0.1733
     72  C         -1.2070   35.1730    6.1340 C.2   169  GLU169      0.2616
     73  O         -1.3650   34.9790    4.9470 O.2   169  GLU169     -0.2715
     74  CB         0.7110   34.0310    7.1190 C.3   169  GLU169      0.0429
     75  CG         1.3440   33.8440    5.7550 C.3   169  GLU169      0.1163
     76  CD         2.8420   33.9690    5.8110 C.2   169  GLU169      0.3649
     77  OE1        3.4060   33.5890    6.8500 O.co2 169  GLU169     -0.2457
     78  OE2        3.4600   34.4200    4.8230 O.co2 169  GLU169     -0.2457
     79  N         -1.3980   36.3550    6.6990 N.am  170  LYS170     -0.1963
     80  CA        -1.8000   37.5220    5.9240 C.3   170  LYS170      0.1728
     81  C         -0.9360   38.7370    6.2720 C.2   170  LYS170      0.2616
     82  O         -1.0270   39.2890    7.3670 O.2   170  LYS170     -0.2715
     83  CB        -3.2490   37.8830    6.1760 C.3   170  LYS170      0.0311
     84  CG        -3.6700   39.1670    5.4580 C.3   170  LYS170      0.0038
     85  CD        -3.7350   38.9480    3.9600 C.3   170  LYS170      0.0206
     86  CE        -3.8580   40.2530    3.1910 C.3   170  LYS170      0.1093
     87  NZ        -2.5690   41.0140    3.1430 N.3   170  LYS170     -0.1314
     88  N         -0.1020   39.1530    5.3280 N.am  171  SER171     -0.1950
     89  CA         0.7530   40.3090    5.5260 C.3   171  SER171      0.1924
     90  C         -0.1240   41.5260    5.7930 C.2   171  SER171      0.2314
     91  O         -1.1230   41.7270    5.1360 O.2   171  SER171     -0.2863
     92  CB         1.5930   40.5710    4.2730 C.3   171  SER171      0.2116
     93  OG         0.7560   40.9590    3.1940 O.3   171  SER171     -0.2180
     94  N         -4.5240   33.7270   12.1500 N.3   208  PRO208     -0.2116
     95  CA        -5.6820   33.5810   13.0340 C.3   208  PRO208      0.1372
     96  C         -5.5340   32.3790   13.9630 C.2   208  PRO208      0.2244
     97  O         -4.9730   31.3750   13.5820 O.2   208  PRO208     -0.2868
     98  CB        -6.8180   33.4430   12.0620 C.3   208  PRO208      0.0268
     99  CG        -6.2020   32.6580   10.9390 C.3   208  PRO208      0.0207
    100  CD        -4.8680   33.3520   10.7650 C.3   208  PRO208      0.0892
@<TRIPOS>BOND
     1    11     9    1
     2     9    10    1
     3     9     8    2
     4    41    42    1
     5    53    50    1
     6    53    54    1
     7    87    86    1
     8    55    54    1
     9    55    49    1
    10    86    85    1
    11    93    92    1
    12    50    49    1
    13    50    51    1
    14    49    43   am
    15     8     7    1
    16    43    44    2
    17    43    42    1
    18    42    45    1
    19    85    84    1
    20    92    89    1
    21    51    52    2
    22    51    56   am
    23     7     6    1
    24    78    76   ar
    25    73    72    2
    26    45    46    1
    27     5     6    1
    28     5     2    1
    29    91    90    2
    30    88    89    1
    31    88    81   am
    32     1     2    1
    33    84    83    1
    34    89    90    1
    35    56    57    1
    36     3     2    1
    37     3     4    2
    38    75    76    1
    39    75    74    1
    40    76    77   ar
    41    25    24    1
    42    80    83    1
    43    80    81    1
    44    80    79    1
    45    26    24    1
    46    72    79   am
    47    72    71    1
    48    46    47    2
    49    46    48   am
    50    81    82    2
    51    67    65   ar
    52    67    69   ar
    53    24    21    1
    54    64    65   ar
    55    64    62   ar
    56    70    71    1
    57    70    58   am
    58    65    63   ar
    59    69    68   ar
    60    57    58    1
    61    57    60    1
    62    62    61   ar
    63    71    74    1
    64    63    61   ar
    65    63    66   ar
    66    68    66   ar
    67    58    59    2
    68    61    60    1
    69    21    20    1
    70    21    22    1
    71    20    14   am
    72    12    13    1
    73    22    23    2
    74    14    13    1
    75    14    15    2
    76    39    37   ar
    77    39    40   ar
    78    13    16    1
    79    16    17    1
    80    18    17    1
    81    37    34   ar
    82    17    19    1
    83    40    38   ar
    84   100    99    1
    85   100    94    1
    86    99    98    1
    87    34    36   ar
    88    34    32   ar
    89    38    36   ar
    90    31    32    1
    91    31    28    1
    92    98    95    1
    93    94    95    1
    94    36    35   ar
    95    32    33   ar
    96    27    28    1
    97    29    28    1
    98    29    30    2
    99    95    96    1
   100    33    35   ar
   101    97    96    2
