@<TRIPOS>MOLECULE
tmp/2zb2A01.pdb
 121 114 0 0 0
SMALL
GASTEIGER

@<TRIPOS>ATOM
      1  N        -11.8850   40.7820   16.5430 N.3    50  GLN50      -0.1231
      2  CA       -11.0410   41.9620   16.6890 C.3    50  GLN50       0.1698
      3  C        -11.8800   43.2330   16.8140 C.2    50  GLN50       0.2592
      4  O        -11.5560   44.1240   17.6100 O.2    50  GLN50      -0.2718
      5  CB       -10.0590   42.0920   15.5000 C.3    50  GLN50       0.0381
      6  CG        -9.0510   40.9410   15.3640 C.3    50  GLN50       0.0905
      7  CD        -8.3870   40.5690   16.6810 C.2    50  GLN50       0.2608
      8  OE1       -7.8150   41.4120   17.3610 O.2    50  GLN50      -0.2717
      9  NE2       -8.4640   39.2950   17.0430 N.am   50  GLN50      -0.0878
     10  N        -12.9550   43.3340   16.0400 N.am   51  GLN51      -0.1979
     11  CA       -13.8030   44.5180   16.1360 C.3    51  GLN51       0.1601
     12  C        -14.3980   44.6170   17.5410 C.2    51  GLN51       0.2287
     13  O        -14.5160   45.6990   18.1010 O.2    51  GLN51      -0.2864
     14  CB       -14.9320   44.4660   15.1130 C.3    51  GLN51       0.0394
     15  CG       -15.8710   45.6550   15.1970 C.3    51  GLN51       0.0908
     16  CD       -15.1360   46.9820   15.0990 C.2    51  GLN51       0.2608
     17  OE1      -14.4720   47.2690   14.1000 O.2    51  GLN51      -0.2717
     18  NE2      -15.2500   47.8000   16.1430 N.am   51  GLN51      -0.0878
     19  N        -12.1240   46.2170   20.0590 N.3    54  TYR54      -0.1241
     20  CA       -12.0190   47.6630   19.8970 C.3    54  TYR54       0.1605
     21  C        -13.1810   48.3510   20.5950 C.2    54  TYR54       0.2264
     22  O        -12.9930   49.3310   21.2720 O.2    54  TYR54      -0.2867
     23  CB       -12.0250   48.0250   18.3940 C.3    54  TYR54       0.0534
     24  CG       -11.9940   49.5040   18.0850 C.ar   54  TYR54      -0.0201
     25  CD1      -10.8110   50.2290   18.1720 C.ar   54  TYR54      -0.0009
     26  CD2      -13.1610   50.1810   17.7120 C.ar   54  TYR54      -0.0009
     27  CE1      -10.7830   51.5940   17.8970 C.ar   54  TYR54       0.0417
     28  CE2      -13.1480   51.5420   17.4350 C.ar   54  TYR54       0.0417
     29  CZ       -11.9570   52.2400   17.5290 C.ar   54  TYR54       0.1957
     30  OH       -11.9390   53.5860   17.2400 O.3    54  TYR54      -0.2866
     31  N         -6.0290   43.7300   27.2910 N.3    60  ARG60      -0.1245
     32  CA        -5.3810   42.8330   26.3440 C.3    60  ARG60       0.1563
     33  C         -4.1240   42.1170   26.8710 C.2    60  ARG60       0.2260
     34  O         -3.3580   42.6610   27.6790 O.2    60  ARG60      -0.2867
     35  CB        -5.0490   43.6040   25.0320 C.3    60  ARG60       0.0307
     36  CG        -6.2430   44.3540   24.4690 C.3    60  ARG60       0.0489
     37  CD        -6.0390   44.7880   23.0360 C.3    60  ARG60       0.2205
     38  NE        -6.8220   45.9820   22.7410 N.pl3  60  ARG60      -0.0865
     39  CZ        -7.4210   46.2170   21.5820 C.cat  60  ARG60       0.5346
     40  NH1       -7.3230   45.3220   20.6080 N.pl3  60  ARG60       0.1354
     41  NH2       -8.1090   47.3450   21.4050 N.pl3  60  ARG60       0.1354
     42  N         -3.0750   38.4040   22.1340 N.3   134  TYR134     -0.1241
     43  CA        -2.3110   38.4870   20.8980 C.3   134  TYR134      0.1605
     44  C         -0.9470   37.8670   21.1540 C.2   134  TYR134      0.2264
     45  O         -0.3790   38.0200   22.2470 O.2   134  TYR134     -0.2867
     46  CB        -2.0990   39.9430   20.4910 C.3   134  TYR134      0.0534
     47  CG        -3.3710   40.7270   20.3000 C.ar  134  TYR134     -0.0201
     48  CD1       -3.7950   41.0890   19.0270 C.ar  134  TYR134     -0.0009
     49  CD2       -4.1490   41.1120   21.3970 C.ar  134  TYR134     -0.0009
     50  CE1       -4.9590   41.8160   18.8440 C.ar  134  TYR134      0.0417
     51  CE2       -5.3130   41.8330   21.2280 C.ar  134  TYR134      0.0417
     52  CZ        -5.7180   42.1870   19.9490 C.ar  134  TYR134      0.1957
     53  OH        -6.8790   42.9200   19.7630 O.3   134  TYR134     -0.2866
     54  N          0.2720   42.3180    6.7810 N.3   172  ARG172     -0.1245
     55  CA        -0.4340   43.5300    7.1430 C.3   172  ARG172      0.1563
     56  C          0.5520   44.6490    6.7900 C.2   172  ARG172      0.2260
     57  O          1.2690   45.1720    7.6510 O.2   172  ARG172     -0.2867
     58  CB        -0.7530   43.5390    8.6600 C.3   172  ARG172      0.0307
     59  CG        -1.5850   42.3560    9.1590 C.3   172  ARG172      0.0489
     60  CD        -2.8880   42.2070    8.3840 C.3   172  ARG172      0.2205
     61  NE        -3.7070   43.4230    8.3830 N.pl3 172  ARG172     -0.0865
     62  CZ        -4.4820   43.8220    9.3900 C.cat 172  ARG172      0.5346
     63  NH1       -4.5600   43.1080   10.5050 N.pl3 172  ARG172      0.1354
     64  NH2       -5.1920   44.9380    9.2790 N.pl3 172  ARG172      0.1354
     65  N          0.8700   48.2250    8.4830 N.3   175  PHE175     -0.1241
     66  CA         1.4270   48.2890    9.8320 C.3   175  PHE175      0.1605
     67  C          2.9240   48.0750    9.9420 C.2   175  PHE175      0.2264
     68  O          3.4280   47.8120   11.0210 O.2   175  PHE175     -0.2867
     69  CB         0.7030   47.2930   10.7640 C.3   175  PHE175      0.0534
     70  CG        -0.7070   47.6800   11.0750 C.ar  175  PHE175     -0.0203
     71  CD1       -0.9720   48.7990   11.8670 C.ar  175  PHE175     -0.0042
     72  CD2       -1.7730   46.9500   10.5500 C.ar  175  PHE175     -0.0042
     73  CE1       -2.2760   49.1920   12.1320 C.ar  175  PHE175     -0.0003
     74  CE2       -3.0940   47.3300   10.8070 C.ar  175  PHE175     -0.0003
     75  CZ        -3.3460   48.4560   11.6010 C.ar  175  PHE175     -0.0000
     76  N          0.6350   37.6780   15.6370 N.3   221  ARG221     -0.1245
     77  CA         1.3780   38.5720   14.7660 C.3   221  ARG221      0.1563
     78  C          2.8660   38.2050   14.7730 C.2   221  ARG221      0.2260
     79  O          3.5410   38.2830   15.7920 O.2   221  ARG221     -0.2867
     80  CB         1.1660   40.0440   15.1970 C.3   221  ARG221      0.0307
     81  CG         1.9750   41.0540   14.4060 C.3   221  ARG221      0.0489
     82  CD         1.3210   42.4200   14.4490 C.3   221  ARG221      0.2205
     83  NE         0.0650   42.4130   13.7100 N.pl3 221  ARG221     -0.0865
     84  CZ        -0.7130   43.4700   13.5370 C.cat 221  ARG221      0.5346
     85  NH1       -0.3690   44.6370   14.0520 N.pl3 221  ARG221      0.1354
     86  NH2       -1.8340   43.3540   12.8430 N.pl3 221  ARG221      0.1354
     87  N          3.8430   48.5760   18.1000 N.3   278  ASP278     -0.1239
     88  CA         2.5100   48.1810   17.6610 C.3   278  ASP278      0.1674
     89  C          1.5280   48.2310   18.8280 C.2   278  ASP278      0.2266
     90  O          0.3830   48.6070   18.6760 O.2   278  ASP278     -0.2867
     91  CB         2.5480   46.7690   17.0980 C.3   278  ASP278      0.1410
     92  CG         1.4320   46.4990   16.0950 C.2   278  ASP278      0.3668
     93  OD1        0.8700   45.3910   16.1320 O.co2 278  ASP278     -0.2456
     94  OD2        1.1380   47.3890   15.2690 O.co2 278  ASP278     -0.2456
     95  N          0.7820   51.7120   19.6570 N.3   281  ARG281     -0.1231
     96  CA        -0.0760   52.1780   18.5790 C.3   281  ARG281      0.1694
     97  C         -1.5360   51.7920   18.8090 C.2   281  ARG281      0.2591
     98  O         -2.4110   52.6330   18.7310 O.2   281  ARG281     -0.2718
     99  CB         0.4210   51.6170   17.2200 C.3   281  ARG281      0.0321
    100  CG        -0.6120   51.6510   16.1080 C.3   281  ARG281      0.0489
    101  CD         0.0020   51.3210   14.7620 C.3   281  ARG281      0.2205
    102  NE         0.6360   52.4840   14.1520 N.pl3 281  ARG281     -0.0865
    103  CZ         1.1530   52.4960   12.9260 C.cat 281  ARG281      0.5346
    104  NH1        1.1170   51.4000   12.1740 N.pl3 281  ARG281      0.1354
    105  NH2        1.6920   53.6100   12.4430 N.pl3 281  ARG281      0.1354
    106  N         -1.7870   50.5180   19.0890 N.am  282  ARG282     -0.1980
    107  CA        -3.1420   50.0420   19.3440 C.3   282  ARG282      0.1597
    108  C         -3.7520   50.7550   20.5620 C.2   282  ARG282      0.2287
    109  O         -4.9080   51.1360   20.5410 O.2   282  ARG282     -0.2864
    110  CB        -3.1280   48.4940   19.5690 C.3   282  ARG282      0.0334
    111  CG        -4.5080   47.8500   19.7400 C.3   282  ARG282      0.0492
    112  CD        -4.4390   46.3030   19.7680 C.3   282  ARG282      0.2205
    113  NE        -3.8630   45.7460   18.5400 N.pl3 282  ARG282     -0.0865
    114  CZ        -2.6670   45.1660   18.4570 C.cat 282  ARG282      0.5346
    115  NH1       -1.8950   45.0420   19.5290 N.pl3 282  ARG282      0.1354
    116  NH2       -2.2310   44.7280   17.2870 N.pl3 282  ARG282      0.1354
    117  N         -4.8330   54.2410   19.6820 N.3   285  ALA285     -0.1245
    118  CA        -5.9230   54.2580   18.7190 C.3   285  ALA285      0.1562
    119  C         -7.2040   53.7380   19.3500 C.2   285  ALA285      0.2260
    120  O         -8.2290   53.5890   18.6730 O.2   285  ALA285     -0.2867
    121  CB        -5.5520   53.4160   17.4980 C.3   285  ALA285      0.0290
@<TRIPOS>BOND
     1    54    55    1
     2    56    55    1
     3    56    57    2
     4    55    58    1
     5    61    60    1
     6    61    62    2
     7    60    59    1
     8    65    66    1
     9    58    59    1
    10    64    62    1
    11    62    63    1
    12    66    67    1
    13    66    69    1
    14    67    68    2
    15    72    74   ar
    16    72    70   ar
    17    69    70    1
    18    74    75   ar
    19    70    71   ar
    20    75    73   ar
    21    71    73   ar
    22   104   103    1
    23   105   103    1
    24    86    84    1
    25   103   102    2
    26    84    83    2
    27    84    85    1
    28    83    82    1
    29    17    16    2
    30   102   101    1
    31    81    82    1
    32    81    80    1
    33   101   100    1
    34    77    78    1
    35    77    80    1
    36    77    76    1
    37    78    79    2
    38    16    15    1
    39    16    18   am
    40    14    15    1
    41    14    11    1
    42    94    92   ar
    43     6     5    1
    44     6     7    1
    45     5     2    1
    46    10    11    1
    47    10     3   am
    48    92    93   ar
    49    92    91    1
    50   100    99    1
    51    11    12    1
    52     1     2    1
    53     7     9   am
    54     7     8    2
    55     2     3    1
    56     3     4    2
    57    91    88    1
    58    99    96    1
    59    30    29    1
    60   116   114    1
    61    28    29   ar
    62    28    26   ar
    63   121   118    1
    64    29    27   ar
    65    12    13    2
    66    88    87    1
    67    88    89    1
    68    26    24   ar
    69    27    25   ar
    70    24    25   ar
    71    24    23    1
    72    23    20    1
    73   114   113    2
    74   114   115    1
    75   113   112    1
    76    96    97    1
    77    96    95    1
    78   120   119    2
    79    90    89    2
    80   118   119    1
    81   118   117    1
    82    98    97    2
    83    97   106   am
    84    50    48   ar
    85    50    52   ar
    86    48    47   ar
    87   106   107    1
    88   107   110    1
    89   107   108    1
    90   110   111    1
    91   111   112    1
    92    53    52    1
    93    20    19    1
    94    20    21    1
    95    52    51   ar
    96    47    46    1
    97    47    49   ar
    98    46    43    1
    99   109   108    2
   100    21    22    2
   101    40    39    1
   102    43    44    1
   103    43    42    1
   104    44    45    2
   105    51    49   ar
   106    41    39    1
   107    39    38    2
   108    38    37    1
   109    37    36    1
   110    36    35    1
   111    35    32    1
   112    32    33    1
   113    32    31    1
   114    33    34    2
