@<TRIPOS>MOLECULE
tmp/2zb4A01.pdb
 156 154 0 0 0
SMALL
GASTEIGER

@<TRIPOS>ATOM
      1  N         11.2260   35.0630   56.4900 N.3    51  PRO51      -0.2102
      2  CA        10.3020   36.1610   56.8060 C.3    51  PRO51       0.1504
      3  C         10.6040   37.4560   56.0600 C.2    51  PRO51       0.2575
      4  O          9.6740   38.1670   55.6870 O.2    51  PRO51      -0.2718
      5  CB        10.4270   36.3250   58.3230 C.3    51  PRO51       0.0282
      6  CG        10.7220   34.8880   58.8070 C.3    51  PRO51       0.0208
      7  CD        11.6700   34.3560   57.6890 C.3    51  PRO51       0.0893
      8  N         11.8740   37.7940   55.8060 N.am   52  TYR52      -0.1977
      9  CA        12.1390   39.0690   55.1110 C.3    52  TYR52       0.1639
     10  C         11.5040   39.1280   53.7110 C.2    52  TYR52       0.2290
     11  O         11.3360   40.2350   53.1250 O.2    52  TYR52      -0.2864
     12  CB        13.6690   39.3400   55.0290 C.3    52  TYR52       0.0560
     13  CG        14.3860   38.5620   53.9410 C.ar   52  TYR52      -0.0198
     14  CD1       14.3740   38.9950   52.6090 C.ar   52  TYR52      -0.0009
     15  CD2       15.0490   37.3880   54.2280 C.ar   52  TYR52      -0.0009
     16  CE1       14.9690   38.2830   51.5960 C.ar   52  TYR52       0.0417
     17  CE2       15.6690   36.6580   53.2010 C.ar   52  TYR52       0.0417
     18  CZ        15.6140   37.0920   51.9130 C.ar   52  TYR52       0.1957
     19  OH        16.0890   36.3470   50.8860 O.3    52  TYR52      -0.2866
     20  N          9.3350   41.8150   50.3240 N.3    56  ARG56      -0.1245
     21  CA         9.6590   41.8560   48.9170 C.3    56  ARG56       0.1563
     22  C          8.3900   41.6690   48.1000 C.2    56  ARG56       0.2260
     23  O          8.3580   41.9420   46.8990 O.2    56  ARG56      -0.2867
     24  CB        10.6940   40.7570   48.6070 C.3    56  ARG56       0.0307
     25  CG        11.9670   40.9790   49.3890 C.3    56  ARG56       0.0489
     26  CD        13.1380   40.1930   48.7080 C.3    56  ARG56       0.2205
     27  NE        13.4850   40.7690   47.3900 N.pl3  56  ARG56      -0.0865
     28  CZ        14.3550   40.2580   46.5130 C.cat  56  ARG56       0.5346
     29  NH1       14.9940   39.1290   46.7600 N.pl3  56  ARG56       0.1354
     30  NH2       14.6150   40.9030   45.3840 N.pl3  56  ARG56       0.1354
     31  N         18.1830   48.3530   51.4860 N.3    65  TYR65      -0.1227
     32  CA        18.8560   47.0510   51.4980 C.3    65  TYR65       0.1736
     33  C         18.1460   45.8870   50.8060 C.2    65  TYR65       0.2595
     34  O         18.7610   44.8510   50.5310 O.2    65  TYR65      -0.2718
     35  CB        19.2210   46.6870   52.9400 C.3    65  TYR65       0.0548
     36  CG        19.9600   47.8290   53.6160 C.ar   65  TYR65      -0.0200
     37  CD1       21.1110   48.3820   53.0340 C.ar   65  TYR65      -0.0009
     38  CD2       19.4680   48.4070   54.7890 C.ar   65  TYR65      -0.0009
     39  CE1       21.7470   49.4890   53.6000 C.ar   65  TYR65       0.0417
     40  CE2       20.0950   49.5150   55.3680 C.ar   65  TYR65       0.0417
     41  CZ        21.2250   50.0500   54.7640 C.ar   65  TYR65       0.1957
     42  OH        21.7940   51.1720   55.3020 O.3    65  TYR65      -0.2866
     43  N         16.8580   46.0220   50.5160 N.am   66  ILE66      -0.1980
     44  CA        16.2110   44.9340   49.8020 C.3    66  ILE66       0.1595
     45  C         15.2090   45.4720   48.7810 C.2    66  ILE66       0.2287
     46  O         14.4240   46.3670   49.0770 O.2    66  ILE66      -0.2864
     47  CB        15.5630   43.9140   50.7630 C.3    66  ILE66       0.0276
     48  CG1       14.2760   44.4250   51.3280 C.3    66  ILE66       0.0022
     49  CG2       16.4800   43.6740   51.9670 C.3    66  ILE66       0.0022
     50  CD1       13.6890   43.3850   52.2460 C.3    66  ILE66       0.0001
     51  N         22.6400   34.5310   47.3550 N.3   100  PHE100     -0.1227
     52  CA        21.4870   35.1050   48.0940 C.3   100  PHE100      0.1736
     53  C         20.4260   35.4670   47.0630 C.2   100  PHE100      0.2595
     54  O         19.2780   35.8550   47.4610 O.2   100  PHE100     -0.2718
     55  CB        21.8550   36.4510   48.7800 C.3   100  PHE100      0.0547
     56  CG        22.5610   36.3440   50.0910 C.ar  100  PHE100     -0.0202
     57  CD1       22.7460   37.5010   50.8600 C.ar  100  PHE100     -0.0042
     58  CD2       23.0230   35.1370   50.5900 C.ar  100  PHE100     -0.0042
     59  CE1       23.3730   37.4540   52.1080 C.ar  100  PHE100     -0.0003
     60  CE2       23.6650   35.0670   51.8590 C.ar  100  PHE100     -0.0003
     61  CZ        23.8340   36.2290   52.6110 C.ar  100  PHE100     -0.0000
     62  N         20.7840   35.4000   45.7620 N.am  101  TYR101     -0.1976
     63  CA        19.8940   35.8050   44.6790 C.3   101  TYR101      0.1639
     64  C         19.6330   34.7040   43.6760 C.2   101  TYR101      0.2290
     65  O         19.6220   34.9070   42.4480 O.2   101  TYR101     -0.2864
     66  CB        20.5130   37.0080   43.9640 C.3   101  TYR101      0.0560
     67  CG        20.7750   38.1550   44.9030 C.ar  101  TYR101     -0.0198
     68  CD1       19.7170   38.8410   45.5080 C.ar  101  TYR101     -0.0009
     69  CD2       22.0700   38.5400   45.2080 C.ar  101  TYR101     -0.0009
     70  CE1       19.9510   39.8930   46.3860 C.ar  101  TYR101      0.0417
     71  CE2       22.3140   39.5980   46.0880 C.ar  101  TYR101      0.0417
     72  CZ        21.2530   40.2600   46.6560 C.ar  101  TYR101      0.1957
     73  OH        21.4780   41.3180   47.4730 O.3   101  TYR101     -0.2866
     74  N         22.8040   32.4880   57.0240 N.3   136  MET136     -0.1245
     75  CA        22.3410   33.7900   57.4910 C.3   136  MET136      0.1570
     76  C         21.5540   33.8030   58.8070 C.2   136  MET136      0.2261
     77  O         21.7970   34.5910   59.6730 O.2   136  MET136     -0.2867
     78  CB        21.6330   34.5280   56.3380 C.3   136  MET136      0.0387
     79  CG        21.2110   35.9920   56.6380 C.3   136  MET136      0.0595
     80  SD        19.5830   35.9380   57.4240 S.3   136  MET136     -0.1393
     81  CE        18.4050   35.7380   55.9820 C.3   136  MET136      0.0692
     82  N         22.8540   35.5920   62.1600 N.3   140  THR140     -0.1218
     83  CA        22.0360   36.6480   62.7780 C.3   140  THR140      0.1862
     84  C         21.9140   36.3920   64.2930 C.2   140  THR140      0.2287
     85  O         22.0660   37.2860   65.0980 O.2   140  THR140     -0.2866
     86  CB        20.6150   36.6360   62.0750 C.3   140  THR140      0.1770
     87  OG1       20.7410   36.9510   60.6710 O.3   140  THR140     -0.2211
     88  CG2       19.6850   37.5960   62.7650 C.3   140  THR140      0.0375
     89  N         15.8470   41.2300   66.8140 N.3   254  CYS254     -0.1221
     90  CA        16.1130   40.4620   65.6110 C.3   254  CYS254      0.1808
     91  C         15.0490   40.6810   64.5600 C.2   254  CYS254      0.2601
     92  O         15.3460   41.0260   63.4350 O.2   254  CYS254     -0.2717
     93  CB        16.2340   38.9670   65.9790 C.3   254  CYS254      0.0970
     94  SG        16.7760   37.9880   64.5760 S.3   254  CYS254     -0.0800
     95  N         13.7700   40.5210   64.9350 N.am  255  GLY255     -0.1957
     96  CA        12.7230   40.7620   63.9470 C.3   255  GLY255      0.1869
     97  C         11.4200   41.0150   64.7260 C.2   255  GLY255      0.2309
     98  O         11.4050   40.9090   65.9460 O.2   255  GLY255     -0.2863
     99  N          4.5700   41.9190   60.3170 N.3   260  TYR260     -0.1241
    100  CA         4.9640   41.9800   58.9230 C.3   260  TYR260      0.1605
    101  C          3.8860   42.0480   57.8980 C.2   260  TYR260      0.2264
    102  O          4.1840   42.3430   56.7460 O.2   260  TYR260     -0.2867
    103  CB         5.9450   40.8230   58.5800 C.3   260  TYR260      0.0534
    104  CG         7.3310   40.9020   59.2080 C.ar  260  TYR260     -0.0201
    105  CD1        7.6970   41.9470   60.0770 C.ar  260  TYR260     -0.0009
    106  CD2        8.2530   39.8960   58.9500 C.ar  260  TYR260     -0.0009
    107  CE1        8.9830   41.9840   60.6790 C.ar  260  TYR260      0.0417
    108  CE2        9.4940   39.9190   59.5300 C.ar  260  TYR260      0.0417
    109  CZ         9.8630   40.9700   60.4050 C.ar  260  TYR260      0.1957
    110  OH        11.0720   41.0110   61.0970 O.3   260  TYR260     -0.2866
    111  N          9.3120   49.7750   60.1450 N.3   266  TYR266     -0.1241
    112  CA        10.0930   48.8780   60.9950 C.3   266  TYR266      0.1605
    113  C         11.2560   49.6160   61.6720 C.2   266  TYR266      0.2264
    114  O         11.9150   50.4280   61.0440 O.2   266  TYR266     -0.2867
    115  CB        10.6670   47.7390   60.1450 C.3   266  TYR266      0.0534
    116  CG        11.4420   46.7480   60.9870 C.ar  266  TYR266     -0.0201
    117  CD1       10.8200   45.5900   61.4950 C.ar  266  TYR266     -0.0009
    118  CD2       12.7610   47.0070   61.3430 C.ar  266  TYR266     -0.0009
    119  CE1       11.5140   44.7130   62.3390 C.ar  266  TYR266      0.0417
    120  CE2       13.4520   46.1730   62.1780 C.ar  266  TYR266      0.0417
    121  CZ        12.8380   45.0270   62.6750 C.ar  266  TYR266      0.1957
    122  OH        13.5560   44.2300   63.5350 O.3   266  TYR266     -0.2866
    123  N         18.8980   45.8580   64.8920 N.3   288  PHE288     -0.1227
    124  CA        19.9900   44.9200   64.6290 C.3   288  PHE288      0.1736
    125  C         19.7460   44.3480   63.2400 C.2   288  PHE288      0.2595
    126  O         18.6950   43.7280   62.9560 O.2   288  PHE288     -0.2718
    127  CB        20.0150   43.7590   65.6070 C.3   288  PHE288      0.0547
    128  CG        21.0900   42.7570   65.2720 C.ar  288  PHE288     -0.0202
    129  CD1       22.4180   43.0580   65.4300 C.ar  288  PHE288     -0.0042
    130  CD2       20.7650   41.5620   64.6640 C.ar  288  PHE288     -0.0042
    131  CE1       23.4310   42.2030   64.9810 C.ar  288  PHE288     -0.0003
    132  CE2       21.7660   40.6940   64.2150 C.ar  288  PHE288     -0.0003
    133  CZ        23.1110   41.0050   64.3590 C.ar  288  PHE288     -0.0000
    134  N         20.6650   44.6150   62.3200 N.am  289  LEU289     -0.1966
    135  CA        20.5180   44.1170   60.9590 C.3   289  LEU289      0.1728
    136  C         21.7980   43.3690   60.7140 C.2   289  LEU289      0.2616
    137  O         22.8870   43.9420   60.7710 O.2   289  LEU289     -0.2715
    138  CB        20.4050   45.2670   59.9570 C.3   289  LEU289      0.0311
    139  CG        20.4240   44.9100   58.5040 C.3   289  LEU289      0.0022
    140  CD1       19.2290   44.0470   58.1190 C.3   289  LEU289      0.0001
    141  CD2       20.3940   46.2390   57.6820 C.3   289  LEU289      0.0001
    142  N         21.6970   42.0820   60.3920 N.am  290  VAL290     -0.1963
    143  CA        22.9420   41.3160   60.2710 C.3   290  VAL290      0.1727
    144  C         23.8480   41.8020   59.1620 C.2   290  VAL290      0.2616
    145  O         25.0750   41.6210   59.2800 O.2   290  VAL290     -0.2715
    146  CB        22.6160   39.8050   60.0580 C.3   290  VAL290      0.0290
    147  CG1       21.8890   39.5770   58.7120 C.3   290  VAL290      0.0023
    148  CG2       23.9130   38.9880   60.1880 C.3   290  VAL290      0.0023
    149  N         23.2830   42.4320   58.1370 N.am  291  LEU291     -0.1977
    150  CA        24.1630   42.8900   57.0380 C.3   291  LEU291      0.1596
    151  C         25.0690   44.0200   57.4770 C.2   291  LEU291      0.2287
    152  O         25.9610   44.3920   56.6830 O.2   291  LEU291     -0.2864
    153  CB        23.4060   43.4250   55.8630 C.3   291  LEU291      0.0297
    154  CG        22.3540   42.6090   55.2050 C.3   291  LEU291      0.0022
    155  CD1       22.7850   41.1570   55.0050 C.3   291  LEU291      0.0001
    156  CD2       21.2020   42.8700   56.0750 C.3   291  LEU291      0.0001
@<TRIPOS>BOND
     1    65    64    2
     2    64    63    1
     3    66    63    1
     4    66    67    1
     5    63    62    1
     6    67    69   ar
     7    67    68   ar
     8    69    71   ar
     9    30    28    1
    10    68    70   ar
    11    62    53   am
    12    71    72   ar
    13    70    72   ar
    14    28    29    1
    15    28    27    2
    16    72    73    1
    17    23    22    2
    18    53    54    2
    19    53    52    1
    20    51    52    1
    21    27    26    1
    22    52    55    1
    23    22    21    1
    24    24    21    1
    25    24    25    1
    26    26    25    1
    27    55    56    1
    28    45    46    2
    29    45    44    1
    30    21    20    1
    31    44    43    1
    32    44    47    1
    33    56    58   ar
    34    56    57   ar
    35    43    33   am
    36    34    33    2
    37    58    60   ar
    38    47    48    1
    39    47    49    1
    40    33    32    1
    41    57    59   ar
    42    19    18    1
    43    48    50    1
    44    31    32    1
    45    32    35    1
    46    16    18   ar
    47    16    14   ar
    48    60    61   ar
    49    18    17   ar
    50    59    61   ar
    51    14    13   ar
    52    35    36    1
    53    37    39   ar
    54    37    36   ar
    55    11    10    2
    56    17    15   ar
    57    39    41   ar
    58    36    38   ar
    59    10     9    1
    60    13    15   ar
    61    13    12    1
    62    41    42    1
    63    41    40   ar
    64    38    40   ar
    65   155   154    1
    66    12     9    1
    67     9     8    1
    68   154   153    1
    69   154   156    1
    70     4     3    2
    71     8     3   am
    72   153   150    1
    73    81    80    1
    74     3     2    1
    75    78    79    1
    76    78    75    1
    77     1     2    1
    78     1     7    1
    79    79    80    1
    80   152   151    2
    81   102   101    2
    82     2     5    1
    83    74    75    1
    84   150   151    1
    85   150   149    1
    86    75    76    1
    87   141   139    1
    88     7     6    1
    89   101   100    1
    90   140   139    1
    91   149   144   am
    92     5     6    1
    93   139   138    1
    94   103   100    1
    95   103   104    1
    96   147   146    1
    97    76    77    2
    98   100    99    1
    99   106   104   ar
   100   106   108   ar
   101   144   145    2
   102   144   143    1
   103   104   105   ar
   104   108   109   ar
   105   138   135    1
   106   146   148    1
   107   146   143    1
   108   105   107   ar
   109   111   112    1
   110   115   116    1
   111   115   112    1
   112   143   142    1
   113   142   136   am
   114   109   107   ar
   115   109   110    1
   116    87    86    1
   117   136   137    2
   118   136   135    1
   119   135   134    1
   120   116   118   ar
   121   116   117   ar
   122   112   113    1
   123   114   113    2
   124   118   120   ar
   125   117   119   ar
   126    86    88    1
   127    86    83    1
   128    82    83    1
   129   120   121   ar
   130   134   125   am
   131   119   121   ar
   132   121   122    1
   133    83    84    1
   134   126   125    2
   135   125   124    1
   136    92    91    2
   137    96    97    1
   138    96    95    1
   139   132   133   ar
   140   132   130   ar
   141    84    85    2
   142   133   131   ar
   143    91    95   am
   144    91    90    1
   145    94    93    1
   146   124   123    1
   147   124   127    1
   148   130   128   ar
   149    97    98    2
   150   131   129   ar
   151   128   129   ar
   152   128   127    1
   153    90    93    1
   154    90    89    1
