@<TRIPOS>MOLECULE
tmp/2zb7A01.pdb
 112 107 0 0 0
SMALL
GASTEIGER

@<TRIPOS>ATOM
      1  N         11.1940   34.9560   56.7020 N.3    50  PRO50      -0.2102
      2  CA        10.2450   36.0170   57.0530 C.3    50  PRO50       0.1504
      3  C         10.4650   37.3340   56.2720 C.2    50  PRO50       0.2575
      4  O          9.4860   38.0180   55.9090 O.2    50  PRO50      -0.2718
      5  CB        10.4810   36.1910   58.5530 C.3    50  PRO50       0.0282
      6  CG        10.7620   34.7690   58.9800 C.3    50  PRO50       0.0208
      7  CD        11.6160   34.1870   57.9070 C.3    50  PRO50       0.0893
      8  N         11.7380   37.7100   56.0400 N.am   51  TYR51      -0.1977
      9  CA        12.0060   38.9720   55.3110 C.3    51  TYR51       0.1639
     10  C         11.3470   38.9640   53.9310 C.2    51  TYR51       0.2290
     11  O         11.0870   40.0270   53.3490 O.2    51  TYR51      -0.2864
     12  CB        13.5500   39.2610   55.2070 C.3    51  TYR51       0.0560
     13  CG        14.3150   38.5150   54.1190 C.ar   51  TYR51      -0.0198
     14  CD1       14.3280   38.9880   52.7810 C.ar   51  TYR51      -0.0009
     15  CD2       14.9750   37.3270   54.4060 C.ar   51  TYR51      -0.0009
     16  CE1       14.9790   38.2490   51.7200 C.ar   51  TYR51       0.0417
     17  CE2       15.6240   36.5790   53.3910 C.ar   51  TYR51       0.0417
     18  CZ        15.6150   37.0440   52.0540 C.ar   51  TYR51       0.1957
     19  OH        16.2090   36.2790   51.0850 O.3    51  TYR51      -0.2866
     20  N          8.3830   41.2670   53.2250 N.3    54  CYS54      -0.1235
     21  CA         8.6360   42.6710   52.8430 C.3    54  CYS54       0.1677
     22  C          8.8170   42.7560   51.3450 C.2    54  CYS54       0.2270
     23  O          8.4260   43.7600   50.7430 O.2    54  CYS54      -0.2867
     24  CB         9.9300   43.2120   53.4720 C.3    54  CYS54       0.0956
     25  SG        10.0960   42.9710   55.2690 S.3    54  CYS54      -0.0801
     26  N         16.7630   45.8260   50.9250 N.3    65  ILE65      -0.1245
     27  CA        15.9670   44.7590   50.3100 C.3    65  ILE65       0.1561
     28  C         15.1140   45.4060   49.2290 C.2    65  ILE65       0.2260
     29  O         14.4050   46.3800   49.5220 O.2    65  ILE65      -0.2867
     30  CB        14.9280   44.1560   51.2710 C.3    65  ILE65       0.0252
     31  CG1       15.5120   44.0010   52.6650 C.3    65  ILE65       0.0019
     32  CG2       14.4410   42.8840   50.7010 C.3    65  ILE65       0.0019
     33  CD1       14.4730   43.5940   53.7510 C.3    65  ILE65       0.0001
     34  N         22.4160   34.5910   47.5530 N.3    99  PHE99      -0.1241
     35  CA        21.2910   35.1160   48.3140 C.3    99  PHE99       0.1605
     36  C         20.1950   35.5670   47.3010 C.2    99  PHE99       0.2264
     37  O         19.0910   35.9970   47.7130 O.2    99  PHE99      -0.2867
     38  CB        21.7700   36.3170   49.1290 C.3    99  PHE99       0.0534
     39  CG        20.7710   36.8400   50.1150 C.ar   99  PHE99      -0.0203
     40  CD1       20.5790   38.2280   50.2540 C.ar   99  PHE99      -0.0042
     41  CD2       20.1380   35.9770   51.0050 C.ar   99  PHE99      -0.0042
     42  CE1       19.7800   38.7520   51.2860 C.ar   99  PHE99      -0.0003
     43  CE2       19.3330   36.4910   52.0390 C.ar   99  PHE99      -0.0003
     44  CZ        19.1620   37.8620   52.1790 C.ar   99  PHE99      -0.0000
     45  N         22.8160   32.5250   56.9920 N.3   135  MET135     -0.1245
     46  CA        22.3430   33.8180   57.4750 C.3   135  MET135      0.1570
     47  C         21.5530   33.8260   58.7920 C.2   135  MET135      0.2261
     48  O         21.7710   34.7060   59.6260 O.2   135  MET135     -0.2867
     49  CB        21.6150   34.5180   56.3210 C.3   135  MET135      0.0387
     50  CG        21.1000   35.9330   56.5620 C.3   135  MET135      0.0595
     51  SD        19.5380   35.8970   57.3790 S.3   135  MET135     -0.1393
     52  CE        18.3400   35.6070   56.0400 C.3   135  MET135      0.0692
     53  N         22.8720   35.6460   62.0400 N.3   139  THR139     -0.1218
     54  CA        22.0470   36.6820   62.6700 C.3   139  THR139      0.1862
     55  C         21.9610   36.4370   64.1830 C.2   139  THR139      0.2287
     56  O         22.0730   37.3660   64.9690 O.2   139  THR139     -0.2866
     57  CB        20.5810   36.6600   62.1010 C.3   139  THR139      0.1770
     58  OG1       20.6030   36.9230   60.6860 O.3   139  THR139     -0.2211
     59  CG2       19.6780   37.6740   62.8510 C.3   139  THR139      0.0375
     60  N         15.8950   41.1530   66.8930 N.3   253  CYS253     -0.1235
     61  CA        16.1470   40.3430   65.7160 C.3   253  CYS253      0.1677
     62  C         15.0810   40.5980   64.6850 C.2   253  CYS253      0.2270
     63  O         15.3840   41.0330   63.5540 O.2   253  CYS253     -0.2867
     64  CB        16.2180   38.8750   66.1150 C.3   253  CYS253      0.0956
     65  SG        16.7320   37.8500   64.6900 S.3   253  CYS253     -0.0801
     66  N          4.6050   41.7390   60.7240 N.3   259  TYR259     -0.1241
     67  CA         4.9390   41.8070   59.3140 C.3   259  TYR259      0.1605
     68  C          3.7620   41.8820   58.3230 C.2   259  TYR259      0.2264
     69  O          3.9550   42.2340   57.1740 O.2   259  TYR259     -0.2867
     70  CB         5.8520   40.6540   58.9470 C.3   259  TYR259      0.0534
     71  CG         7.2610   40.7830   59.5220 C.ar  259  TYR259     -0.0201
     72  CD1        7.5970   41.8210   60.4310 C.ar  259  TYR259     -0.0009
     73  CD2        8.2500   39.8330   59.1980 C.ar  259  TYR259     -0.0009
     74  CE1        8.8730   41.8880   60.9950 C.ar  259  TYR259      0.0417
     75  CE2        9.5490   39.9260   59.7670 C.ar  259  TYR259      0.0417
     76  CZ         9.8280   40.9300   60.6510 C.ar  259  TYR259      0.1957
     77  OH        11.0680   40.9280   61.2470 O.3   259  TYR259     -0.2866
     78  N          9.1320   49.7210   60.3380 N.3   265  TYR265     -0.1241
     79  CA         9.9090   48.8150   61.2010 C.3   265  TYR265      0.1605
     80  C         11.0630   49.5070   61.8990 C.2   265  TYR265      0.2264
     81  O         11.7510   50.3220   61.2940 O.2   265  TYR265     -0.2867
     82  CB        10.4960   47.6640   60.3810 C.3   265  TYR265      0.0534
     83  CG        11.2620   46.7070   61.2530 C.ar  265  TYR265     -0.0201
     84  CD1       10.6270   45.5920   61.8470 C.ar  265  TYR265     -0.0009
     85  CD2       12.5990   46.9410   61.5360 C.ar  265  TYR265     -0.0009
     86  CE1       11.3490   44.7130   62.7090 C.ar  265  TYR265      0.0417
     87  CE2       13.3080   46.1170   62.3850 C.ar  265  TYR265      0.0417
     88  CZ        12.6850   45.0010   62.9590 C.ar  265  TYR265      0.1957
     89  OH        13.4650   44.2040   63.7540 O.3   265  TYR265     -0.2866
     90  N         20.6070   44.5990   62.1010 N.3   288  LEU288     -0.1231
     91  CA        20.3690   44.0890   60.7620 C.3   288  LEU288      0.1693
     92  C         21.6360   43.3230   60.4470 C.2   288  LEU288      0.2592
     93  O         22.7380   43.8990   60.3940 O.2   288  LEU288     -0.2718
     94  CB        20.1410   45.2510   59.7690 C.3   288  LEU288      0.0284
     95  CG        20.0250   44.8600   58.2950 C.3   288  LEU288      0.0019
     96  CD1       18.7440   44.0550   58.0900 C.3   288  LEU288      0.0001
     97  CD2       19.9510   46.1310   57.4090 C.3   288  LEU288      0.0001
     98  N         21.5040   42.0160   60.1910 N.am  289  VAL289     -0.1966
     99  CA        22.7370   41.2300   60.0250 C.3   289  VAL289      0.1727
    100  C         23.5890   41.6860   58.8250 C.2   289  VAL289      0.2616
    101  O         24.8030   41.5060   58.8270 O.2   289  VAL289     -0.2715
    102  CB        22.3940   39.7480   59.8850 C.3   289  VAL289      0.0290
    103  CG1       21.6990   39.5290   58.5740 C.3   289  VAL289      0.0023
    104  CG2       23.6470   38.9260   60.0250 C.3   289  VAL289      0.0023
    105  N         22.9500   42.2880   57.8190 N.am  290  LEU290     -0.1977
    106  CA        23.6460   42.7690   56.6160 C.3   290  LEU290      0.1596
    107  C         24.6180   43.9160   56.9760 C.2   290  LEU290      0.2287
    108  O         25.4840   44.2890   56.1470 O.2   290  LEU290     -0.2864
    109  CB        22.6330   43.2660   55.6120 C.3   290  LEU290      0.0297
    110  CG        21.6460   42.2220   55.0870 C.3   290  LEU290      0.0022
    111  CD1       20.6680   42.8820   54.1220 C.3   290  LEU290      0.0001
    112  CD2       22.4110   41.1240   54.3550 C.3   290  LEU290      0.0001
@<TRIPOS>BOND
     1    36    37    2
     2    36    35    1
     3    34    35    1
     4    35    38    1
     5    38    39    1
     6    28    29    2
     7    28    27    1
     8    39    40   ar
     9    39    41   ar
    10    40    42   ar
    11    27    26    1
    12    27    30    1
    13    32    30    1
    14    23    22    2
    15    41    43   ar
    16    19    18    1
    17    30    31    1
    18    42    44   ar
    19    22    21    1
    20    16    18   ar
    21    16    14   ar
    22    43    44   ar
    23    18    17   ar
    24    31    33    1
    25    14    13   ar
    26    21    20    1
    27    21    24    1
    28    11    10    2
    29    17    15   ar
    30    24    25    1
    31    10     9    1
    32    13    15   ar
    33    13    12    1
    34   111   110    1
    35   112   110    1
    36   110   109    1
    37    12     9    1
    38     9     8    1
    39   109   106    1
    40     4     3    2
    41     8     3   am
    42    52    51    1
    43   108   107    2
    44     3     2    1
    45    49    50    1
    46    49    46    1
    47    50    51    1
    48   106   107    1
    49   106   105    1
    50     1     2    1
    51     1     7    1
    52    45    46    1
    53     2     5    1
    54    69    68    2
    55    97    95    1
    56    46    47    1
    57   105   100   am
    58     7     6    1
    59    96    95    1
    60    95    94    1
    61    68    67    1
    62     5     6    1
    63   103   102    1
    64    47    48    2
    65   100   101    2
    66   100    99    1
    67    70    67    1
    68    70    71    1
    69    73    71   ar
    70    73    75   ar
    71    67    66    1
    72    71    72   ar
    73    75    76   ar
    74    94    91    1
    75   102   104    1
    76   102    99    1
    77    99    98    1
    78    98    92   am
    79    78    79    1
    80    82    79    1
    81    82    83    1
    82    93    92    2
    83    72    74   ar
    84    92    91    1
    85    76    74   ar
    86    76    77    1
    87    58    57    1
    88    91    90    1
    89    79    80    1
    90    83    85   ar
    91    83    84   ar
    92    81    80    2
    93    85    87   ar
    94    84    86   ar
    95    53    54    1
    96    57    54    1
    97    57    59    1
    98    87    88   ar
    99    54    55    1
   100    86    88   ar
   101    88    89    1
   102    63    62    2
   103    55    56    2
   104    62    61    1
   105    65    64    1
   106    61    64    1
   107    61    60    1
