@<TRIPOS>MOLECULE
tmp/2zb8A01.pdb
 157 153 0 0 0
SMALL
GASTEIGER

@<TRIPOS>ATOM
      1  N        -36.3680   40.4150   48.7480 N.3    50  PRO50      -0.2102
      2  CA       -37.4810   39.7560   49.3920 C.3    50  PRO50       0.1504
      3  C        -38.6750   39.4120   48.4820 C.2    50  PRO50       0.2575
      4  O        -39.3150   38.4160   48.7670 O.2    50  PRO50      -0.2718
      5  CB       -37.8690   40.7120   50.5150 C.3    50  PRO50       0.0282
      6  CG       -36.5420   41.3480   50.8950 C.3    50  PRO50       0.0208
      7  CD       -35.9380   41.6010   49.5150 C.3    50  PRO50       0.0893
      8  N        -38.9910   40.2370   47.4700 N.am   51  TYR51      -0.1977
      9  CA       -40.1370   39.9160   46.6130 C.3    51  TYR51       0.1639
     10  C        -39.9280   38.5420   45.9420 C.2    51  TYR51       0.2290
     11  O        -40.9060   37.8560   45.6350 O.2    51  TYR51      -0.2864
     12  CB       -40.4130   41.0070   45.5490 C.3    51  TYR51       0.0560
     13  CG       -39.5030   40.9320   44.3570 C.ar   51  TYR51      -0.0198
     14  CD1      -39.7240   40.0060   43.3060 C.ar   51  TYR51      -0.0009
     15  CD2      -38.3940   41.7500   44.2950 C.ar   51  TYR51      -0.0009
     16  CE1      -38.8320   39.9210   42.2630 C.ar   51  TYR51       0.0417
     17  CE2      -37.5140   41.6850   43.2550 C.ar   51  TYR51       0.0417
     18  CZ       -37.7300   40.7660   42.2460 C.ar   51  TYR51       0.1957
     19  OH       -36.7970   40.7030   41.2650 O.3    51  TYR51      -0.2866
     20  N        -42.0190   35.3740   46.8510 N.3    54  CYS54      -0.1221
     21  CA       -43.3080   35.0220   46.2810 C.3    54  CYS54       0.1808
     22  C        -43.1590   34.3070   44.9310 C.2    54  CYS54       0.2601
     23  O        -44.0410   33.5620   44.5740 O.2    54  CYS54      -0.2717
     24  CB       -44.2150   36.2300   46.1620 C.3    54  CYS54       0.0970
     25  SG       -44.1460   36.8960   44.5370 S.3    54  CYS54      -0.0800
     26  N        -42.0450   34.4920   44.2130 N.am   55  ARG55      -0.1979
     27  CA       -41.8280   33.8100   42.9300 C.3    55  ARG55       0.1597
     28  C        -41.4790   32.3340   43.0940 C.2    55  ARG55       0.2287
     29  O        -41.4290   31.5820   42.1130 O.2    55  ARG55      -0.2864
     30  CB       -40.7250   34.5060   42.1220 C.3    55  ARG55       0.0334
     31  CG       -41.0400   35.9810   41.9240 C.3    55  ARG55       0.0492
     32  CD       -40.3180   36.6020   40.7560 C.3    55  ARG55       0.2205
     33  NE       -40.6900   35.9690   39.4960 N.pl3  55  ARG55      -0.0865
     34  CZ       -40.0030   36.0310   38.3570 C.cat  55  ARG55       0.5346
     35  NH1      -38.8670   36.7310   38.2660 N.pl3  55  ARG55       0.1354
     36  NH2      -40.4300   35.3140   37.3140 N.pl3  55  ARG55       0.1354
     37  N        -48.2940   33.4550   42.4870 N.3    60  THR60      -0.1218
     38  CA       -47.9080   34.8440   42.7880 C.3    60  THR60       0.1862
     39  C        -46.4610   35.1590   42.4600 C.2    60  THR60       0.2287
     40  O        -45.9020   34.4730   41.5720 O.2    60  THR60      -0.2866
     41  CB       -48.2010   35.2380   44.2710 C.3    60  THR60       0.1770
     42  OG1      -49.5930   35.5360   44.4210 O.3    60  THR60      -0.2211
     43  CG2      -47.4310   36.4660   44.6740 C.3    60  THR60       0.0375
     44  N        -45.6880   39.0270   39.1860 N.3    61  ILE61      -0.1245
     45  CA       -45.9360   38.3870   37.8660 C.3    61  ILE61       0.1561
     46  C        -45.8920   36.8800   37.9730 C.2    61  ILE61       0.2260
     47  O        -46.5220   36.2810   38.8190 O.2    61  ILE61      -0.2867
     48  CB       -44.8570   38.7710   36.8120 C.3    61  ILE61       0.0252
     49  CG1      -43.4870   38.8720   37.5100 C.3    61  ILE61       0.0019
     50  CG2      -45.2780   40.0310   36.0410 C.3    61  ILE61       0.0019
     51  CD1      -42.2770   38.7040   36.5810 C.3    61  ILE61       0.0001
     52  N        -34.2260   44.1050   35.0280 N.3    95  PHE95      -0.1227
     53  CA       -34.9200   43.5250   36.1820 C.3    95  PHE95       0.1736
     54  C        -35.0180   42.0290   35.9780 C.2    95  PHE95       0.2595
     55  O        -35.3110   41.2960   36.9190 O.2    95  PHE95      -0.2718
     56  CB       -36.3420   44.0910   36.3970 C.3    95  PHE95       0.0547
     57  CG       -36.3950   45.5770   36.4980 C.ar   95  PHE95      -0.0202
     58  CD1      -35.5190   46.2650   37.3290 C.ar   95  PHE95      -0.0042
     59  CD2      -37.2770   46.3090   35.6970 C.ar   95  PHE95      -0.0042
     60  CE1      -35.5080   47.6730   37.3580 C.ar   95  PHE95      -0.0003
     61  CE2      -37.2880   47.7030   35.7110 C.ar   95  PHE95      -0.0003
     62  CZ       -36.4000   48.3920   36.5400 C.ar   95  PHE95      -0.0000
     63  N        -34.7560   41.5650   34.7510 N.am   96  TYR96      -0.1976
     64  CA       -34.8570   40.1290   34.4380 C.3    96  TYR96       0.1639
     65  C        -33.6110   39.4770   33.9760 C.2    96  TYR96       0.2290
     66  O        -33.6100   38.7880   32.9480 O.2    96  TYR96      -0.2864
     67  CB       -35.8460   39.8560   33.3430 C.3    96  TYR96       0.0560
     68  CG       -37.1930   40.3970   33.6070 C.ar   96  TYR96      -0.0198
     69  CD1      -38.1220   39.6480   34.2970 C.ar   96  TYR96      -0.0009
     70  CD2      -37.5490   41.6570   33.1470 C.ar   96  TYR96      -0.0009
     71  CE1      -39.3940   40.1280   34.5250 C.ar   96  TYR96       0.0417
     72  CE2      -38.8110   42.1570   33.3810 C.ar   96  TYR96       0.0417
     73  CZ       -39.7350   41.3800   34.0760 C.ar   96  TYR96       0.1957
     74  OH       -40.9890   41.8690   34.3830 O.3    96  TYR96      -0.2866
     75  N        -33.1540   50.3990   42.5640 N.3   131  MET131     -0.1245
     76  CA       -34.5580   50.1670   43.0120 C.3   131  MET131      0.1570
     77  C        -34.7980   50.3310   44.5200 C.2   131  MET131      0.2261
     78  O        -35.6770   51.1060   44.9310 O.2   131  MET131     -0.2867
     79  CB       -35.0160   48.7910   42.4870 C.3   131  MET131      0.0387
     80  CG       -36.5100   48.4680   42.6330 C.3   131  MET131      0.0595
     81  SD       -36.7550   47.7990   44.2700 S.3   131  MET131     -0.1393
     82  CE       -36.4640   45.9190   44.0260 C.3   131  MET131      0.0692
     83  N        -37.0200   53.1550   45.9740 N.3   135  THR135     -0.1218
     84  CA       -38.2000   52.8520   46.7840 C.3   135  THR135      0.1862
     85  C        -38.2530   53.6950   48.0440 C.2   135  THR135      0.2287
     86  O        -39.3160   54.1940   48.4570 O.2   135  THR135     -0.2866
     87  CB       -38.2450   51.3450   47.1710 C.3   135  THR135      0.1770
     88  OG1      -38.1630   50.5740   45.9780 O.3   135  THR135     -0.2211
     89  CG2      -39.5560   51.0190   47.9580 C.3   135  THR135      0.0375
     90  N        -43.9100   49.9790   52.8140 N.3   249  CYS249     -0.1221
     91  CA       -42.9660   49.4960   51.8200 C.3   249  CYS249      0.1808
     92  C        -43.0450   47.9590   51.6670 C.2   249  CYS249      0.2601
     93  O        -43.1650   47.4400   50.5600 O.2   249  CYS249     -0.2717
     94  CB       -41.5450   49.9500   52.2090 C.3   249  CYS249      0.0970
     95  SG       -40.3040   49.5540   51.0460 S.3   249  CYS249     -0.0800
     96  N        -42.9730   47.2270   52.7730 N.am  250  GLY250     -0.1957
     97  CA       -43.0810   45.7850   52.6480 C.3   250  GLY250      0.1869
     98  C        -43.5410   45.2100   53.9640 C.2   250  GLY250      0.2309
     99  O        -43.6850   45.9520   54.9410 O.2   250  GLY250     -0.2863
    100  N        -43.9370   37.0350   54.6680 N.3   255  TYR255     -0.1241
    101  CA       -43.6390   36.4240   53.3850 C.3   255  TYR255      0.1605
    102  C        -43.5330   34.9180   53.3480 C.2   255  TYR255      0.2264
    103  O        -43.5890   34.3490   52.2770 O.2   255  TYR255     -0.2867
    104  CB       -42.3870   37.0610   52.7660 C.3   255  TYR255      0.0534
    105  CG       -42.5950   38.5120   52.3110 C.ar  255  TYR255     -0.0201
    106  CD1      -43.7950   39.1940   52.5700 C.ar  255  TYR255     -0.0009
    107  CD2      -41.5610   39.2200   51.7020 C.ar  255  TYR255     -0.0009
    108  CE1      -43.9330   40.5940   52.2270 C.ar  255  TYR255      0.0417
    109  CE2      -41.7040   40.5670   51.3710 C.ar  255  TYR255      0.0417
    110  CZ       -42.8610   41.2460   51.6340 C.ar  255  TYR255      0.1957
    111  OH       -42.9180   42.5820   51.3170 O.3   255  TYR255     -0.2866
    112  N        -51.6460   40.1260   50.8920 N.3   261  TYR261     -0.1241
    113  CA       -50.7920   41.2890   51.0000 C.3   261  TYR261      0.1605
    114  C        -51.6120   42.4340   50.3950 C.2   261  TYR261      0.2264
    115  O        -52.2080   42.2900   49.3170 O.2   261  TYR261     -0.2867
    116  CB       -49.4870   41.1110   50.2180 C.3   261  TYR261      0.0534
    117  CG       -48.6230   42.3420   50.3320 C.ar  261  TYR261     -0.0201
    118  CD1      -47.6430   42.4450   51.3340 C.ar  261  TYR261     -0.0009
    119  CD2      -48.8840   43.4670   49.5400 C.ar  261  TYR261     -0.0009
    120  CE1      -46.9600   43.6370   51.5510 C.ar  261  TYR261      0.0417
    121  CE2      -48.2130   44.6620   49.7470 C.ar  261  TYR261      0.0417
    122  CZ       -47.2500   44.7440   50.7620 C.ar  261  TYR261      0.1957
    123  OH       -46.6070   45.9420   50.9800 O.3   261  TYR261     -0.2866
    124  N        -47.9610   50.9560   48.5090 N.3   283  PHE283     -0.1227
    125  CA       -46.9480   51.7330   47.8160 C.3   283  PHE283      0.1736
    126  C        -46.1700   50.7660   46.9780 C.2   283  PHE283      0.2595
    127  O        -45.6390   49.7930   47.5010 O.2   283  PHE283     -0.2718
    128  CB       -45.9630   52.4100   48.7850 C.3   283  PHE283      0.0547
    129  CG       -44.7720   53.0710   48.0670 C.ar  283  PHE283     -0.0202
    130  CD1      -44.9760   54.1540   47.2070 C.ar  283  PHE283     -0.0042
    131  CD2      -43.4720   52.5690   48.2050 C.ar  283  PHE283     -0.0042
    132  CE1      -43.9300   54.7340   46.4830 C.ar  283  PHE283     -0.0003
    133  CE2      -42.3910   53.1510   47.4730 C.ar  283  PHE283     -0.0003
    134  CZ       -42.6240   54.2280   46.6090 C.ar  283  PHE283     -0.0000
    135  N        -46.1390   50.9840   45.6760 N.am  284  LEU284     -0.1966
    136  CA       -45.3600   50.1320   44.7960 C.3   284  LEU284      0.1728
    137  C        -44.4580   51.0340   43.9330 C.2   284  LEU284      0.2616
    138  O        -44.9470   51.7180   43.0120 O.2   284  LEU284     -0.2715
    139  CB       -46.2580   49.2850   43.9030 C.3   284  LEU284      0.0311
    140  CG       -45.5250   48.2710   43.0120 C.3   284  LEU284      0.0022
    141  CD1      -44.8860   47.0940   43.8270 C.3   284  LEU284      0.0001
    142  CD2      -46.5590   47.7370   42.0000 C.3   284  LEU284      0.0001
    143  N        -43.1480   51.0130   44.2180 N.am  285  VAL285     -0.1963
    144  CA       -42.2190   51.8600   43.4830 C.3   285  VAL285      0.1727
    145  C        -42.4420   51.8380   41.9390 C.2   285  VAL285      0.2616
    146  O        -42.2940   52.8630   41.2910 O.2   285  VAL285     -0.2715
    147  CB       -40.6910   51.5680   43.8770 C.3   285  VAL285      0.0290
    148  CG1      -40.1780   50.2730   43.2620 C.3   285  VAL285      0.0023
    149  CG2      -39.8040   52.7680   43.4650 C.3   285  VAL285      0.0023
    150  N        -42.7990   50.7000   41.3560 N.am  286  LEU286     -0.1977
    151  CA       -43.0230   50.6680   39.9080 C.3   286  LEU286      0.1596
    152  C        -44.1360   51.6100   39.3550 C.2   286  LEU286      0.2287
    153  O        -44.2130   51.8420   38.1340 O.2   286  LEU286     -0.2864
    154  CB       -43.3080   49.2530   39.4390 C.3   286  LEU286      0.0297
    155  CG       -42.2280   48.1940   39.6930 C.3   286  LEU286      0.0022
    156  CD1      -42.6870   46.9070   39.0540 C.3   286  LEU286      0.0001
    157  CD2      -40.8960   48.6290   39.1370 C.3   286  LEU286      0.0001
@<TRIPOS>BOND
     1    66    65    2
     2    70    72   ar
     3    70    68   ar
     4    67    68    1
     5    67    64    1
     6    72    73   ar
     7    68    69   ar
     8    65    64    1
     9    73    74    1
    10    73    71   ar
    11    69    71   ar
    12    64    63    1
    13    63    54   am
    14    52    53    1
    15    59    61   ar
    16    59    57   ar
    17    61    62   ar
    18    54    53    1
    19    54    55    2
    20    50    48    1
    21    53    56    1
    22    56    57    1
    23    57    58   ar
    24    62    60   ar
    25    51    49    1
    26    48    49    1
    27    48    45    1
    28    36    34    1
    29    58    60   ar
    30    45    46    1
    31    45    44    1
    32    46    47    2
    33   153   152    2
    34    35    34    1
    35    34    33    2
    36   156   155    1
    37   157   155    1
    38   152   151    1
    39   154   155    1
    40   154   151    1
    41    33    32    1
    42   151   150    1
    43    32    31    1
    44    19    18    1
    45   146   145    2
    46   150   145   am
    47    40    39    2
    48    31    30    1
    49   145   144    1
    50   142   140    1
    51    29    28    2
    52    30    27    1
    53    18    16   ar
    54    18    17   ar
    55    16    14   ar
    56    39    38    1
    57    79    80    1
    58    79    76    1
    59    37    38    1
    60    75    76    1
    61    80    81    1
    62    38    41    1
    63    27    28    1
    64    27    26    1
    65   140   141    1
    66   140   139    1
    67   138   137    2
    68    76    77    1
    69    17    15   ar
    70   148   147    1
    71    14    13   ar
    72   149   147    1
    73   144   147    1
    74   144   143    1
    75   139   136    1
    76   137   143   am
    77   137   136    1
    78    82    81    1
    79    26    22   am
    80    41    42    1
    81    41    43    1
    82    15    13   ar
    83    13    12    1
    84    77    78    2
    85    25    24    1
    86    23    22    2
    87   136   135    1
    88    22    21    1
    89    12     9    1
    90    11    10    2
    91   135   126   am
    92    10     9    1
    93    83    84    1
    94    88    87    1
    95    24    21    1
    96    21    20    1
    97   132   134   ar
    98   132   130   ar
    99   134   133   ar
   100     9     8    1
   101    84    87    1
   102    84    85    1
   103   126   127    2
   104   126   125    1
   105    87    89    1
   106   130   129   ar
   107     8     3   am
   108   133   131   ar
   109   125   124    1
   110   125   128    1
   111    85    86    2
   112   129   131   ar
   113   129   128    1
   114     3     4    2
   115     3     2    1
   116     1     2    1
   117     1     7    1
   118   115   114    2
   119     2     5    1
   120     7     6    1
   121   119   121   ar
   122   119   117   ar
   123   121   122   ar
   124   116   117    1
   125   116   113    1
   126   117   118   ar
   127   114   113    1
   128     5     6    1
   129    93    92    2
   130   122   123    1
   131   122   120   ar
   132   112   113    1
   133    95    94    1
   134   111   110    1
   135   118   120   ar
   136   109   110   ar
   137   109   107   ar
   138   110   108   ar
   139    92    91    1
   140    92    96   am
   141   107   105   ar
   142    91    94    1
   143    91    90    1
   144   108   106   ar
   145   103   102    2
   146   105   106   ar
   147   105   104    1
   148    97    96    1
   149    97    98    1
   150   104   101    1
   151   102   101    1
   152   101   100    1
   153    98    99    2
