@<TRIPOS>MOLECULE
tmp/2zbaD00.pdb
 215 207 0 0 0
SMALL
GASTEIGER

@<TRIPOS>ATOM
      1  N        108.0700   36.7230  -46.6560 N.3    19  THR19      -0.1218
      2  CA       108.1880   36.3000  -45.2730 C.3    19  THR19       0.1862
      3  C        107.0080   35.4070  -44.9400 C.2    19  THR19       0.2287
      4  O        105.8550   35.7910  -45.1710 O.2    19  THR19      -0.2866
      5  CB       108.1380   37.4990  -44.3190 C.3    19  THR19       0.1770
      6  OG1      109.1870   38.4220  -44.6430 O.3    19  THR19      -0.2211
      7  CG2      108.2890   37.0590  -42.8900 C.3    19  THR19       0.0375
      8  N        108.2040   41.1700  -48.9580 N.3   141  HIS141     -0.1241
      9  CA       109.1760   41.8210  -48.0630 C.3   141  HIS141      0.1621
     10  C        109.5110   43.3130  -48.2950 C.2   141  HIS141      0.2264
     11  O        109.9900   43.9770  -47.3810 O.2   141  HIS141     -0.2867
     12  CB       110.4710   41.0140  -47.9180 C.3   141  HIS141      0.0745
     13  CG       111.1500   41.2300  -46.6020 C.ar  141  HIS141      0.0817
     14  ND1      111.8310   40.2350  -45.9410 N.ar  141  HIS141     -0.2268
     15  CD2      111.2280   42.3300  -45.8100 C.ar  141  HIS141      0.1154
     16  CE1      112.3050   40.7110  -44.8010 C.ar  141  HIS141      0.1986
     17  NE2      111.9550   41.9830  -44.7000 N.ar  141  HIS141     -0.2212
     18  N        108.0030   44.3010  -43.1940 N.3   144  ASP144     -0.1239
     19  CA       108.8490   43.4700  -42.3670 C.3   144  ASP144      0.1674
     20  C        107.9350   42.6030  -41.4990 C.2   144  ASP144      0.2266
     21  O        106.7030   42.7220  -41.5820 O.2   144  ASP144     -0.2867
     22  CB       109.8470   44.3150  -41.5470 C.3   144  ASP144      0.1410
     23  CG       109.1730   45.4350  -40.7390 C.2   144  ASP144      0.3668
     24  OD1      108.0640   45.2280  -40.2490 O.co2 144  ASP144     -0.2456
     25  OD2      109.7800   46.5170  -40.5540 O.co2 144  ASP144     -0.2456
     26  N        107.4600   42.6780  -38.3490 N.3   145  THR145     -0.1218
     27  CA       106.7360   43.5310  -37.3870 C.3   145  THR145      0.1862
     28  C        105.4490   44.0760  -38.0120 C.2   145  THR145      0.2287
     29  O        104.3750   43.9760  -37.4060 O.2   145  THR145     -0.2866
     30  CB       107.6320   44.6620  -36.8210 C.3   145  THR145      0.1770
     31  OG1      108.7690   44.0660  -36.1830 O.3   145  THR145     -0.2211
     32  CG2      106.8640   45.5180  -35.7980 C.3   145  THR145      0.0375
     33  N        121.2940   34.8560  -19.1680 N.3   206  LYS206     -0.1245
     34  CA       121.1370   36.2830  -18.8880 C.3   206  LYS206      0.1561
     35  C        121.6840   36.6520  -17.5130 C.2   206  LYS206      0.2260
     36  O        122.4090   37.6370  -17.3770 O.2   206  LYS206     -0.2867
     37  CB       119.6710   36.7160  -19.0130 C.3   206  LYS206      0.0271
     38  CG       119.4640   38.2250  -18.9210 C.3   206  LYS206      0.0035
     39  CD       118.0060   38.6170  -19.0750 C.3   206  LYS206      0.0206
     40  CE       117.7730   40.0570  -18.6240 C.3   206  LYS206      0.1093
     41  NZ       116.3410   40.4610  -18.7130 N.3   206  LYS206     -0.1314
     42  N        122.6590   47.2920  -19.0260 N.3   208  PHE208     -0.1227
     43  CA       121.9370   46.0300  -18.8890 C.3   208  PHE208      0.1736
     44  C        122.0390   45.2980  -20.2260 C.2   208  PHE208      0.2595
     45  O        122.5280   45.8510  -21.2210 O.2   208  PHE208     -0.2718
     46  CB       120.4650   46.2630  -18.5060 C.3   208  PHE208      0.0547
     47  CG       119.6430   46.9030  -19.6000 C.ar  208  PHE208     -0.0202
     48  CD1      119.5290   48.2950  -19.6820 C.ar  208  PHE208     -0.0042
     49  CD2      118.9950   46.1190  -20.5530 C.ar  208  PHE208     -0.0042
     50  CE1      118.7880   48.8920  -20.6880 C.ar  208  PHE208     -0.0003
     51  CE2      118.2560   46.7060  -21.5700 C.ar  208  PHE208     -0.0003
     52  CZ       118.1450   48.0970  -21.6350 C.ar  208  PHE208     -0.0000
     53  N        121.5740   44.0530  -20.2350 N.am  209  VAL209     -0.1966
     54  CA       121.3910   43.2840  -21.4660 C.3   209  VAL209      0.1727
     55  C        120.0730   42.5050  -21.3530 C.2   209  VAL209      0.2617
     56  O        119.6140   42.1860  -20.2480 O.2   209  VAL209     -0.2715
     57  CB       122.6010   42.3340  -21.8100 C.3   209  VAL209      0.0290
     58  CG1      123.8310   43.1290  -22.2630 C.3   209  VAL209      0.0023
     59  CG2      122.9440   41.4080  -20.6500 C.3   209  VAL209      0.0023
     60  N        119.4560   42.2360  -22.4970 N.am  210  SER210     -0.1936
     61  CA       118.1880   41.5140  -22.5320 C.3   210  SER210      0.2055
     62  C        118.3850   40.0090  -22.7260 C.2   210  SER210      0.2644
     63  O        119.5110   39.5230  -22.9480 O.2   210  SER210     -0.2714
     64  CB       117.3000   42.0800  -23.6460 C.3   210  SER210      0.2130
     65  OG       117.9050   41.9160  -24.9150 O.3   210  SER210     -0.2179
     66  N        117.2780   39.2780  -22.6410 N.am  211  THR211     -0.1936
     67  CA       117.2480   37.8690  -22.9930 C.3   211  THR211      0.2028
     68  C        117.6930   37.6990  -24.4530 C.2   211  THR211      0.2642
     69  O        118.5600   36.8670  -24.7450 O.2   211  THR211     -0.2714
     70  CB       115.8410   37.2830  -22.7590 C.3   211  THR211      0.1808
     71  OG1      115.4580   37.5050  -21.3970 O.3   211  THR211     -0.2208
     72  CG2      115.7860   35.7850  -23.0710 C.3   211  THR211      0.0379
     73  N        117.1160   38.5100  -25.3470 N.am  212  ASP212     -0.1957
     74  CA       117.4360   38.4770  -26.7760 C.3   212  ASP212      0.1840
     75  C        118.9170   38.7550  -27.0240 C.2   212  ASP212      0.2622
     76  O        119.5290   38.1130  -27.8880 O.2   212  ASP212     -0.2715
     77  CB       116.5620   39.4810  -27.5490 C.3   212  ASP212      0.1450
     78  CG       116.4910   39.1890  -29.0400 C.2   212  ASP212      0.3671
     79  OD1      117.5200   39.2180  -29.7480 O.co2 212  ASP212     -0.2456
     80  OD2      115.3790   38.9440  -29.5210 O.co2 212  ASP212     -0.2456
     81  N        119.4700   39.7250  -26.2820 N.am  213  ASP213     -0.1971
     82  CA       120.9130   40.0370  -26.2990 C.3   213  ASP213      0.1709
     83  C        121.7090   38.8020  -25.8470 C.2   213  ASP213      0.2293
     84  O        122.6870   38.4250  -26.4760 O.2   213  ASP213     -0.2864
     85  CB       121.2740   41.1760  -25.3130 C.3   213  ASP213      0.1436
     86  CG       120.7460   42.5560  -25.7160 C.2   213  ASP213      0.3671
     87  OD1      120.5040   42.8570  -26.9100 O.co2 213  ASP213     -0.2456
     88  OD2      120.6060   43.3650  -24.7810 O.co2 213  ASP213     -0.2456
     89  N        122.4360   42.0660  -36.9680 N.3   232  ARG232     -0.1231
     90  CA       121.1920   41.9360  -36.2030 C.3   232  ARG232      0.1694
     91  C        120.0810   42.8510  -36.7510 C.2   232  ARG232      0.2592
     92  O        120.2410   44.0710  -36.8060 O.2   232  ARG232     -0.2718
     93  CB       121.4710   42.2440  -34.7310 C.3   232  ARG232      0.0321
     94  CG       120.3870   41.8340  -33.7560 C.3   232  ARG232      0.0489
     95  CD       120.6750   42.4140  -32.3920 C.3   232  ARG232      0.2205
     96  NE       119.8750   41.7800  -31.3510 N.pl3 232  ARG232     -0.0865
     97  CZ       119.9260   42.0920  -30.0600 C.cat 232  ARG232      0.5346
     98  NH1      120.7410   43.0390  -29.6190 N.pl3 232  ARG232      0.1354
     99  NH2      119.1610   41.4490  -29.2010 N.pl3 232  ARG232      0.1354
    100  N        118.9640   42.2570  -37.1660 N.am  233  ALA233     -0.1966
    101  CA       117.7700   43.0320  -37.5450 C.3   233  ALA233      0.1728
    102  C        117.2160   43.8540  -36.3660 C.2   233  ALA233      0.2616
    103  O        117.1870   43.3790  -35.2240 O.2   233  ALA233     -0.2715
    104  CB       116.6910   42.1100  -38.1080 C.3   233  ALA233      0.0334
    105  N        116.8000   45.0890  -36.6510 N.am  234  VAL234     -0.1963
    106  CA       116.2320   45.9940  -35.6330 C.3   234  VAL234      0.1727
    107  C        114.9930   46.7220  -36.1860 C.2   234  VAL234      0.2616
    108  O        115.0470   47.3230  -37.2430 O.2   234  VAL234     -0.2715
    109  CB       117.2910   47.0520  -35.1040 C.3   234  VAL234      0.0290
    110  CG1      116.6750   47.9830  -34.0790 C.3   234  VAL234      0.0023
    111  CG2      118.4920   46.3620  -34.4860 C.3   234  VAL234      0.0023
    112  N        113.8790   46.6250  -35.4650 N.am  235  ASP235     -0.1971
    113  CA       112.6430   47.3660  -35.7740 C.3   235  ASP235      0.1709
    114  C        112.8740   48.8370  -35.4320 C.2   235  ASP235      0.2293
    115  O        113.2260   49.1530  -34.3040 O.2   235  ASP235     -0.2864
    116  CB       111.4850   46.8070  -34.9300 C.3   235  ASP235      0.1436
    117  CG       110.1890   47.6190  -35.0570 C.2   235  ASP235      0.3671
    118  OD1      110.0160   48.3400  -36.0500 O.co2 235  ASP235     -0.2456
    119  OD2      109.3230   47.5020  -34.1650 O.co2 235  ASP235     -0.2456
    120  N        112.8800   49.2210  -40.6690 N.3   249  GLN249     -0.1245
    121  CA       113.7890   48.2320  -40.1310 C.3   249  GLN249      0.1566
    122  C        115.2000   48.5710  -40.5800 C.2   249  GLN249      0.2260
    123  O        115.3930   49.0130  -41.7000 O.2   249  GLN249     -0.2867
    124  CB       113.4170   46.8720  -40.7270 C.3   249  GLN249      0.0367
    125  CG       113.9910   45.6740  -39.9970 C.3   249  GLN249      0.0905
    126  CD       113.7830   44.3850  -40.7470 C.2   249  GLN249      0.2608
    127  OE1      113.6350   44.3740  -41.9710 O.2   249  GLN249     -0.2717
    128  NE2      113.7910   43.2850  -40.0220 N.am  249  GLN249     -0.0878
    129  N        124.0900   45.2530  -27.5910 N.3   273  ARG273     -0.1245
    130  CA       123.2960   46.2730  -26.9020 C.3   273  ARG273      0.1563
    131  C        123.8850   47.6860  -27.0110 C.2   273  ARG273      0.2260
    132  O        123.1510   48.6780  -26.8840 O.2   273  ARG273     -0.2867
    133  CB       123.0890   45.8710  -25.4340 C.3   273  ARG273      0.0307
    134  CG       122.4240   46.9080  -24.5150 C.3   273  ARG273      0.0489
    135  CD       120.9440   47.2090  -24.8460 C.3   273  ARG273      0.2205
    136  NE       120.1210   46.0050  -25.0250 N.pl3 273  ARG273     -0.0865
    137  CZ       118.8370   46.0050  -25.3890 C.cat 273  ARG273      0.5346
    138  NH1      118.1900   47.1540  -25.6070 N.pl3 273  ARG273      0.1354
    139  NH2      118.1930   44.8540  -25.5340 N.pl3 273  ARG273      0.1354
    140  N        122.2860   49.6740  -29.8530 N.3   276  LEU276     -0.1245
    141  CA       120.8560   49.9200  -29.7320 C.3   276  LEU276      0.1561
    142  C        120.5700   51.2880  -29.0890 C.2   276  LEU276      0.2260
    143  O        119.5430   51.5040  -28.4630 O.2   276  LEU276     -0.2867
    144  CB       120.1700   48.7790  -28.9620 C.3   276  LEU276      0.0270
    145  CG       120.0410   47.4350  -29.6910 C.3   276  LEU276      0.0019
    146  CD1      119.4830   46.3790  -28.7770 C.3   276  LEU276      0.0001
    147  CD2      119.1760   47.5530  -30.9240 C.3   276  LEU276      0.0001
    148  N        117.5090   37.6780  -37.4160 N.3   311  SER311     -0.1202
    149  CA       116.3240   38.4960  -37.1990 C.3   311  SER311      0.2020
    150  C        115.4490   37.8910  -36.1030 C.2   311  SER311      0.2619
    151  O        114.9570   36.7600  -36.2290 O.2   311  SER311     -0.2717
    152  CB       115.5160   38.6240  -38.4880 C.3   311  SER311      0.2103
    153  OG       114.2900   39.2980  -38.2170 O.3   311  SER311     -0.2182
    154  N        115.2560   38.6450  -35.0260 N.am  312  SER312     -0.1937
    155  CA       114.4290   38.1820  -33.9260 C.3   312  SER312      0.2055
    156  C        112.9590   38.5350  -34.1400 C.2   312  SER312      0.2643
    157  O        112.6220   39.7020  -34.2820 O.2   312  SER312     -0.2714
    158  CB       114.9000   38.7410  -32.5960 C.3   312  SER312      0.2130
    159  OG       114.0550   38.2610  -31.5630 O.3   312  SER312     -0.2179
    160  N        112.1010   37.5140  -34.1710 N.am  313  TRP313     -0.1959
    161  CA       110.6500   37.7210  -34.1960 C.3   313  TRP313      0.1771
    162  C        110.0710   37.5320  -32.7920 C.2   313  TRP313      0.2620
    163  O        108.8520   37.4040  -32.6320 O.2   313  TRP313     -0.2715
    164  CB       109.9680   36.7420  -35.1660 C.3   313  TRP313      0.0590
    165  CG       110.4100   36.8510  -36.6070 C.ar  313  TRP313      0.0006
    166  CD1      111.2620   37.7700  -37.1390 C.ar  313  TRP313      0.0946
    167  CD2      109.9910   36.0180  -37.6930 C.ar  313  TRP313      0.0152
    168  NE1      111.4060   37.5630  -38.4940 N.ar  313  TRP313     -0.2442
    169  CE2      110.6310   36.4960  -38.8600 C.ar  313  TRP313      0.0810
    170  CE3      109.1230   34.9230  -37.7990 C.ar  313  TRP313      0.0012
    171  CZ2      110.4460   35.9070  -40.1110 C.ar  313  TRP313      0.0191
    172  CZ3      108.9360   34.3440  -39.0550 C.ar  313  TRP313      0.0001
    173  CH2      109.5920   34.8370  -40.1830 C.ar  313  TRP313      0.0015
    174  N        110.9390   37.5300  -31.7780 N.am  314  ALA314     -0.1963
    175  CA       110.5150   37.1860  -30.4130 C.3   314  ALA314      0.1728
    176  C        109.3230   38.0360  -29.9310 C.2   314  ALA314      0.2616
    177  O        108.4400   37.5210  -29.2390 O.2   314  ALA314     -0.2715
    178  CB       111.6850   37.2970  -29.4320 C.3   314  ALA314      0.0334
    179  N        109.3140   39.3230  -30.3080 N.am  315  LYS315     -0.1963
    180  CA       108.2570   40.2750  -29.9030 C.3   315  LYS315      0.1728
    181  C        106.9370   40.1550  -30.7010 C.2   315  LYS315      0.2616
    182  O        105.9230   40.7370  -30.3120 O.2   315  LYS315     -0.2715
    183  CB       108.7680   41.7200  -29.9860 C.3   315  LYS315      0.0311
    184  CG       109.6430   42.1580  -28.7990 C.3   315  LYS315      0.0038
    185  CD       110.4390   43.4090  -29.1710 C.3   315  LYS315      0.0206
    186  CE       110.9630   44.1370  -27.9260 C.3   315  LYS315      0.1093
    187  NZ       111.1430   45.5990  -28.2470 N.3   315  LYS315     -0.1314
    188  N        106.9590   39.4220  -31.8100 N.am  316  VAL316     -0.1977
    189  CA       105.7460   39.1480  -32.6050 C.3   316  VAL316      0.1596
    190  C        104.6040   38.5080  -31.7620 C.2   316  VAL316      0.2287
    191  O        104.8560   37.7020  -30.8390 O.2   316  VAL316     -0.2864
    192  CB       106.1390   38.3930  -33.9330 C.3   316  VAL316      0.0276
    193  CG1      105.0130   37.5370  -34.4930 C.3   316  VAL316      0.0022
    194  CG2      106.6100   39.4080  -34.9810 C.3   316  VAL316      0.0022
    195  N        116.8540   33.0020  -37.1550 N.3   345  TYR345     -0.1241
    196  CA       115.6330   33.6560  -36.7100 C.3   345  TYR345      0.1605
    197  C        115.3630   33.2340  -35.2860 C.2   345  TYR345      0.2264
    198  O        115.7200   32.1230  -34.8910 O.2   345  TYR345     -0.2867
    199  CB       114.4430   33.2110  -37.5620 C.3   345  TYR345      0.0534
    200  CG       114.4660   33.6510  -38.9920 C.ar  345  TYR345     -0.0201
    201  CD1      113.9850   34.9100  -39.3600 C.ar  345  TYR345     -0.0009
    202  CD2      114.9570   32.8050  -39.9930 C.ar  345  TYR345     -0.0009
    203  CE1      113.9800   35.3280  -40.6930 C.ar  345  TYR345      0.0417
    204  CE2      114.9650   33.2060  -41.3290 C.ar  345  TYR345      0.0417
    205  CZ       114.4810   34.4750  -41.6720 C.ar  345  TYR345      0.1957
    206  OH       114.4810   34.8930  -42.9900 O.3   345  TYR345     -0.2866
    207  N        108.2340   34.7200  -29.1260 N.3   348  LYS348     -0.1245
    208  CA       108.3830   34.1420  -27.7890 C.3   348  LYS348      0.1561
    209  C        107.1060   33.4230  -27.3740 C.2   348  LYS348      0.2260
    210  O        106.0120   33.9630  -27.5070 O.2   348  LYS348     -0.2867
    211  CB       108.7470   35.2400  -26.7840 C.3   348  LYS348      0.0271
    212  CG       108.8790   34.7740  -25.3410 C.3   348  LYS348      0.0035
    213  CD       109.0190   35.9550  -24.3820 C.3   348  LYS348      0.0206
    214  CE       107.7120   36.7390  -24.2420 C.3   348  LYS348      0.1093
    215  NZ       107.9220   38.0030  -23.4780 N.3   348  LYS348     -0.1314
@<TRIPOS>BOND
     1     8     9    1
     2    10     9    1
     3    10    11    2
     4     9    12    1
     5    12    13    1
     6     1     2    1
     7    13    14   ar
     8    13    15   ar
     9    14    16   ar
    10    15    17   ar
    11     2     3    1
    12     2     5    1
    13     4     3    2
    14    16    17   ar
    15     6     5    1
    16     5     7    1
    17    18    19    1
    18   206   205    1
    19    19    22    1
    20    19    20    1
    21   127   126    2
    22   123   122    2
    23   205   204   ar
    24   205   203   ar
    25    21    20    2
    26    22    23    1
    27   204   202   ar
    28   126   128   am
    29   126   125    1
    30    23    25   ar
    31    23    24   ar
    32   124   121    1
    33   124   125    1
    34   203   201   ar
    35   120   121    1
    36   122   121    1
    37   173   171   ar
    38   173   172   ar
    39   171   169   ar
    40   202   200   ar
    41   201   200   ar
    42   172   170   ar
    43   200   199    1
    44   169   168   ar
    45   169   167   ar
    46   168   166   ar
    47   152   153    1
    48   152   149    1
    49    26    27    1
    50   104   101    1
    51    28    29    2
    52    28    27    1
    53   170   167   ar
    54   167   165   ar
    55   199   196    1
    56   101   100    1
    57   101   102    1
    58   148   149    1
    59    27    30    1
    60   108   107    2
    61   149   150    1
    62   100    91   am
    63   195   196    1
    64   166   165   ar
    65    89    90    1
    66    30    31    1
    67    30    32    1
    68    92    91    2
    69    91    90    1
    70   196   197    1
    71   105   102   am
    72   105   106    1
    73   165   164    1
    74   102   103    2
    75   151   150    2
    76    90    93    1
    77   107   106    1
    78   107   112   am
    79   150   154   am
    80   118   117   ar
    81   113   112    1
    82   113   114    1
    83   113   116    1
    84   106   109    1
    85   114   115    2
    86   197   198    2
    87   164   161    1
    88   109   111    1
    89   109   110    1
    90   117   116    1
    91   117   119   ar
    92   154   155    1
    93   194   192    1
    94    93    94    1
    95   193   192    1
    96   157   156    2
    97   161   160    1
    98   161   162    1
    99   160   156   am
   100   156   155    1
   101   192   189    1
   102   155   158    1
   103    94    95    1
   104   162   163    2
   105   162   174   am
   106   189   188    1
   107   189   190    1
   108   158   159    1
   109    95    96    1
   110   188   181   am
   111   174   175    1
   112   190   191    2
   113    96    97    2
   114   147   145    1
   115   181   182    2
   116   181   180    1
   117   175   176    1
   118   175   178    1
   119   179   176   am
   120   179   180    1
   121    97    98    1
   122    97    99    1
   123   183   180    1
   124   183   184    1
   125   176   177    2
   126   140   141    1
   127    79    78   ar
   128   141   142    1
   129   141   144    1
   130   145   144    1
   131   145   146    1
   132    80    78   ar
   133   185   184    1
   134   185   186    1
   135   207   208    1
   136   142   143    2
   137    78    77    1
   138   187   186    1
   139    76    75    2
   140   208   209    1
   141   208   211    1
   142   129   130    1
   143    77    74    1
   144   210   209    2
   145    75    74    1
   146    75    81   am
   147   131   130    1
   148   131   132    2
   149    87    86   ar
   150   130   133    1
   151   211   212    1
   152    74    73    1
   153    84    83    2
   154    82    81    1
   155    82    83    1
   156    82    85    1
   157    86    85    1
   158    86    88   ar
   159   138   137    1
   160   139   137    1
   161   133   134    1
   162   137   136    2
   163    73    68   am
   164   212   213    1
   165   136   135    1
   166    65    64    1
   167   135   134    1
   168    69    68    2
   169    68    67    1
   170   213   214    1
   171   214   215    1
   172    64    61    1
   173    72    70    1
   174    67    70    1
   175    67    66    1
   176    63    62    2
   177    70    71    1
   178    62    66   am
   179    62    61    1
   180    61    60    1
   181    60    55   am
   182    58    57    1
   183    57    54    1
   184    57    59    1
   185    52    51   ar
   186    52    50   ar
   187    51    49   ar
   188    54    55    1
   189    54    53    1
   190    55    56    2
   191    45    44    2
   192    50    48   ar
   193    49    47   ar
   194    53    44   am
   195    44    43    1
   196    48    47   ar
   197    47    46    1
   198    33    34    1
   199    39    38    1
   200    39    40    1
   201    42    43    1
   202    37    38    1
   203    37    34    1
   204    43    46    1
   205    34    35    1
   206    41    40    1
   207    35    36    2
