@<TRIPOS>MOLECULE
tmp/2zbaA01.pdb
 186 177 0 0 0
SMALL
GASTEIGER

@<TRIPOS>ATOM
      1  N        102.1390   36.1830   25.8730 N.3    12  GLN12      -0.1245
      2  CA       103.2110   36.2410   24.8770 C.3    12  GLN12       0.1566
      3  C        103.1000   37.5450   24.0940 C.2    12  GLN12       0.2260
      4  O        102.0290   37.8500   23.5660 O.2    12  GLN12      -0.2867
      5  CB       103.0950   35.0750   23.8860 C.3    12  GLN12       0.0367
      6  CG       103.2290   33.7340   24.4840 C.3    12  GLN12       0.0905
      7  CD       102.8520   32.6220   23.5340 C.2    12  GLN12       0.2608
      8  OE1      103.1470   32.6750   22.3340 O.2    12  GLN12      -0.2717
      9  NE2      102.2210   31.5850   24.0700 N.am   12  GLN12      -0.0878
     10  N        103.8050   38.3430   21.0740 N.3    14  PRO14      -0.2102
     11  CA       103.1030   38.2390   19.7780 C.3    14  PRO14       0.1504
     12  C        101.5570   38.2170   19.8640 C.2    14  PRO14       0.2575
     13  O        100.8900   38.8830   19.0710 O.2    14  PRO14      -0.2718
     14  CB       103.6110   36.9120   19.1840 C.3    14  PRO14       0.0282
     15  CG       104.8420   36.5590   19.9440 C.3    14  PRO14       0.0208
     16  CD       104.7180   37.2020   21.2980 C.3    14  PRO14       0.0893
     17  N        101.0010   37.4520   20.7990 N.am   15  LEU15      -0.1980
     18  CA        99.5450   37.3340   20.9360 C.3    15  LEU15       0.1596
     19  C         98.9210   38.6660   21.3100 C.2    15  LEU15       0.2287
     20  O         97.7670   38.9440   20.9730 O.2    15  LEU15      -0.2864
     21  CB        99.1640   36.2620   21.9670 C.3    15  LEU15       0.0297
     22  CG        99.6020   34.8350   21.6220 C.3    15  LEU15       0.0022
     23  CD1       99.3110   33.8680   22.7580 C.3    15  LEU15       0.0001
     24  CD2       98.9670   34.3680   20.3130 C.3    15  LEU15       0.0001
     25  N         99.7420   41.5360   20.2360 N.3    17  SER17      -0.1202
     26  CA        99.7190   42.4010   19.0430 C.3    17  SER17       0.2020
     27  C         98.7510   41.9510   17.9280 C.2    17  SER17       0.2618
     28  O         98.7190   42.5470   16.8430 O.2    17  SER17      -0.2717
     29  CB       101.1290   42.5140   18.4570 C.3    17  SER17       0.2103
     30  OG       101.9050   43.4430   19.2090 O.3    17  SER17      -0.2182
     31  N         97.9660   40.9070   18.1910 N.am   18  ILE18      -0.1979
     32  CA        97.1670   40.2760   17.1340 C.3    18  ILE18       0.1595
     33  C         95.6670   40.3030   17.4320 C.2    18  ILE18       0.2287
     34  O         95.2490   40.0410   18.5550 O.2    18  ILE18      -0.2864
     35  CB        97.6790   38.8210   16.8320 C.3    18  ILE18       0.0276
     36  CG1       99.0880   38.8720   16.2370 C.3    18  ILE18       0.0022
     37  CG2       96.7100   38.0170   15.9050 C.3    18  ILE18       0.0022
     38  CD1       99.8380   37.5360   16.3820 C.3    18  ILE18       0.0001
     39  N         92.3730   38.2250   16.0960 N.3    20  THR20      -0.1218
     40  CA        91.7550   37.1780   15.2830 C.3    20  THR20       0.1862
     41  C         90.4560   37.6900   14.6740 C.2    20  THR20       0.2287
     42  O         89.6080   38.2220   15.3860 O.2    20  THR20      -0.2866
     43  CB        91.4700   35.9140   16.1060 C.3    20  THR20       0.1770
     44  OG1       92.7030   35.4010   16.6250 O.3    20  THR20      -0.2211
     45  CG2       90.8190   34.8190   15.2250 C.3    20  THR20       0.0375
     46  N         94.4570   42.7650   11.6230 N.3   117  THR117     -0.1203
     47  CA        94.9990   41.5720   12.2650 C.3   117  THR117      0.1994
     48  C         96.3040   41.8860   13.0140 C.2   117  THR117      0.2617
     49  O         96.4780   41.4970   14.1660 O.2   117  THR117     -0.2717
     50  CB        95.2280   40.4260   11.2330 C.3   117  THR117      0.1784
     51  OG1       93.9800   40.0840   10.6130 O.3   117  THR117     -0.2211
     52  CG2       95.8060   39.1710   11.9180 C.3   117  THR117      0.0376
     53  N         97.1990   42.6070   12.3470 N.am  118  LEU118     -0.1979
     54  CA        98.5310   42.9080   12.8780 C.3   118  LEU118      0.1596
     55  C         98.6550   44.3630   13.3470 C.2   118  LEU118      0.2287
     56  O         98.0910   45.2700   12.7380 O.2   118  LEU118     -0.2864
     57  CB        99.6070   42.5950   11.8250 C.3   118  LEU118      0.0297
     58  CG        99.6560   41.1770   11.2190 C.3   118  LEU118      0.0022
     59  CD1      100.6080   41.0910   10.0390 C.3   118  LEU118      0.0001
     60  CD2      100.0210   40.1290   12.2460 C.3   118  LEU118      0.0001
     61  N         94.0520   38.4600   20.6180 N.3   150  HIS150     -0.1241
     62  CA        94.5380   37.0880   20.7150 C.3   150  HIS150      0.1621
     63  C         95.0800   36.6280   22.0900 C.2   150  HIS150      0.2264
     64  O         95.0790   35.4330   22.3780 O.2   150  HIS150     -0.2867
     65  CB        95.5170   36.7540   19.5880 C.3   150  HIS150      0.0745
     66  CG        95.5770   35.2870   19.2800 C.ar  150  HIS150      0.0817
     67  ND1       95.8300   34.7930   18.0190 N.ar  150  HIS150     -0.2268
     68  CD2       95.4060   34.2080   20.0790 C.ar  150  HIS150      0.1154
     69  CE1       95.8100   33.4720   18.0560 C.ar  150  HIS150      0.1986
     70  NE2       95.5570   33.0920   19.2960 N.ar  150  HIS150     -0.2212
     71  N         98.5620   24.0780   15.3540 N.3   272  ALA272     -0.1245
     72  CA        97.7950   24.4980   16.5340 C.3   272  ALA272      0.1562
     73  C         96.8920   23.3820   17.1230 C.2   272  ALA272      0.2260
     74  O         96.2930   22.5550   16.4000 O.2   272  ALA272     -0.2867
     75  CB        96.9400   25.7640   16.2320 C.3   272  ALA272      0.0290
     76  N         95.7500   27.1220   24.1630 N.3   288  GLN288     -0.1245
     77  CA        96.1860   26.5920   22.8960 C.3   288  GLN288      0.1566
     78  C         97.6570   26.2520   23.0680 C.2   288  GLN288      0.2260
     79  O         98.3310   26.8360   23.9270 O.2   288  GLN288     -0.2867
     80  CB        96.0220   27.6960   21.8510 C.3   288  GLN288      0.0367
     81  CG        96.3310   27.3250   20.4180 C.3   288  GLN288      0.0905
     82  CD        96.0610   28.4810   19.4660 C.2   288  GLN288      0.2608
     83  OE1       95.0580   28.4740   18.7440 O.2   288  GLN288     -0.2717
     84  NE2       96.9310   29.4970   19.4850 N.am  288  GLN288     -0.0878
     85  N        107.6640   32.4300   21.8570 N.3   340  SER340     -0.1202
     86  CA       106.6930   32.4700   20.7660 C.3   340  SER340      0.2020
     87  C        106.2840   31.0590   20.3580 C.2   340  SER340      0.2619
     88  O        107.1150   30.1680   20.2800 O.2   340  SER340     -0.2717
     89  CB       107.2820   33.2110   19.5640 C.3   340  SER340      0.2103
     90  OG       106.5050   33.0160   18.4040 O.3   340  SER340     -0.2182
     91  N        105.0030   30.8740   20.0590 N.am  341  LEU341     -0.1965
     92  CA       104.5180   29.5890   19.5250 C.3   341  LEU341      0.1728
     93  C        105.1820   29.1520   18.2170 C.2   341  LEU341      0.2616
     94  O        105.1890   27.9730   17.8950 O.2   341  LEU341     -0.2715
     95  CB       102.9880   29.5760   19.3830 C.3   341  LEU341      0.0311
     96  CG       102.1790   29.4720   20.6810 C.3   341  LEU341      0.0022
     97  CD1      100.6700   29.3250   20.3820 C.3   341  LEU341      0.0001
     98  CD2      102.6500   28.3400   21.5430 C.3   341  LEU341      0.0001
     99  N        105.7620   30.0950   17.4800 N.am  342  THR342     -0.1951
    100  CA       106.4350   29.7760   16.2160 C.3   342  THR342      0.1897
    101  C        107.9120   30.2170   16.2770 C.2   342  THR342      0.2313
    102  O        108.4930   30.5970   15.2740 O.2   342  THR342     -0.2863
    103  CB       105.6850   30.4220   14.9870 C.3   342  THR342      0.1794
    104  OG1      105.6840   31.8440   15.1180 O.3   342  THR342     -0.2208
    105  CG2      104.2260   29.9640   14.9130 C.3   342  THR342      0.0378
    106  N        100.2810   26.0720   10.7580 N.3   352  LEU352     -0.1231
    107  CA        98.8740   25.8400   10.4590 C.3   352  LEU352      0.1693
    108  C         97.9870   25.8760   11.6830 C.2   352  LEU352      0.2592
    109  O         98.2980   25.2460   12.6950 O.2   352  LEU352     -0.2718
    110  CB        98.7040   24.4940    9.7660 C.3   352  LEU352      0.0284
    111  CG        97.2630   23.9740    9.6330 C.3   352  LEU352      0.0019
    112  CD1       96.4990   24.7090    8.5440 C.3   352  LEU352      0.0001
    113  CD2       97.2470   22.4510    9.4100 C.3   352  LEU352      0.0001
    114  N         96.8840   26.6160   11.5780 N.am  353  SER353     -0.1952
    115  CA        95.8150   26.5660   12.5560 C.3   353  SER353      0.1924
    116  C         94.4730   26.1210   11.9510 C.2   353  SER353      0.2314
    117  O         93.8370   26.8560   11.1940 O.2   353  SER353     -0.2863
    118  CB        95.6250   27.9170   13.2310 C.3   353  SER353      0.2116
    119  OG        94.5710   27.8320   14.1750 O.3   353  SER353     -0.2180
    120  N         90.7370   25.7290   12.1210 N.3   355  TRP355     -0.1241
    121  CA        89.4960   26.1840   12.7310 C.3   355  TRP355      0.1605
    122  C         88.3330   25.2850   12.3530 C.2   355  TRP355      0.2264
    123  O         87.1790   25.6790   12.5240 O.2   355  TRP355     -0.2867
    124  CB        89.1480   27.6050   12.2560 C.3   355  TRP355      0.0550
    125  CG        90.1360   28.6830   12.6710 C.ar  355  TRP355      0.0003
    126  CD1       91.2440   28.5360   13.4390 C.ar  355  TRP355      0.0946
    127  CD2       90.0320   30.0750   12.3770 C.ar  355  TRP355      0.0152
    128  NE1       91.8630   29.7500   13.6260 N.ar  355  TRP355     -0.2442
    129  CE2       91.1340   30.7140   12.9840 C.ar  355  TRP355      0.0810
    130  CE3       89.1110   30.8490   11.6520 C.ar  355  TRP355      0.0012
    131  CZ2       91.3500   32.0930   12.8800 C.ar  355  TRP355      0.0191
    132  CZ3       89.3250   32.2170   11.5530 C.ar  355  TRP355      0.0001
    133  CH2       90.4290   32.8250   12.1740 C.ar  355  TRP355      0.0015
    134  N         87.8750   33.7530    6.7700 N.3   377  ARG377     -0.1245
    135  CA        88.7690   34.5890    7.5730 C.3   377  ARG377      0.1563
    136  C         89.2860   35.6840    6.6370 C.2   377  ARG377      0.2260
    137  O         89.9120   35.3420    5.6220 O.2   377  ARG377     -0.2867
    138  CB        89.9710   33.7900    8.0820 C.3   377  ARG377      0.0307
    139  CG        90.6470   34.4600    9.2370 C.3   377  ARG377      0.0489
    140  CD        92.1090   34.6860    9.0350 C.3   377  ARG377      0.2205
    141  NE        92.6220   35.4390   10.1820 N.pl3 377  ARG377     -0.0865
    142  CZ        92.5760   36.7660   10.3090 C.cat 377  ARG377      0.5346
    143  NH1       92.0630   37.5320    9.3400 N.pl3 377  ARG377      0.1354
    144  NH2       93.0510   37.3310   11.4210 N.pl3 377  ARG377      0.1354
    145  N         94.7320   39.5110    5.2290 N.3   380  PHE380     -0.1241
    146  CA        95.6320   40.5400    5.7080 C.3   380  PHE380      0.1605
    147  C         96.9330   40.4180    4.9420 C.2   380  PHE380      0.2264
    148  O         96.9530   39.7950    3.8920 O.2   380  PHE380     -0.2867
    149  CB        95.7900   40.4960    7.2370 C.3   380  PHE380      0.0534
    150  CG        96.2440   39.1700    7.7930 C.ar  380  PHE380     -0.0203
    151  CD1       97.5670   38.9940    8.1950 C.ar  380  PHE380     -0.0042
    152  CD2       95.3500   38.1230    7.9630 C.ar  380  PHE380     -0.0042
    153  CE1       98.0020   37.7910    8.7340 C.ar  380  PHE380     -0.0003
    154  CE2       95.7730   36.8950    8.5160 C.ar  380  PHE380     -0.0003
    155  CZ        97.0980   36.7360    8.8990 C.ar  380  PHE380     -0.0000
    156  N        101.9300   36.4300    4.4310 N.3   383  PHE383     -0.1241
    157  CA       102.6960   35.9360    5.5430 C.3   383  PHE383      0.1605
    158  C        103.0970   34.5150    5.1940 C.2   383  PHE383      0.2264
    159  O        102.3630   33.5580    5.4580 O.2   383  PHE383     -0.2867
    160  CB       101.8360   35.9750    6.7920 C.3   383  PHE383      0.0534
    161  CG       102.6100   36.0610    8.0510 C.ar  383  PHE383     -0.0203
    162  CD1      102.6040   37.2300    8.7930 C.ar  383  PHE383     -0.0042
    163  CD2      103.3200   34.9600    8.5260 C.ar  383  PHE383     -0.0042
    164  CE1      103.3050   37.3140    9.9750 C.ar  383  PHE383     -0.0003
    165  CE2      104.0350   35.0320    9.7110 C.ar  383  PHE383     -0.0003
    166  CZ       104.0300   36.2130   10.4380 C.ar  383  PHE383     -0.0000
    167  N        102.2170   30.6780    6.5290 N.3   386  LEU386     -0.1245
    168  CA       101.1030   30.7230    7.4700 C.3   386  LEU386      0.1561
    169  C         99.8410   30.2040    6.8070 C.2   386  LEU386      0.2260
    170  O         99.5870   30.5110    5.6540 O.2   386  LEU386     -0.2867
    171  CB       100.9100   32.1360    8.0570 C.3   386  LEU386      0.0270
    172  CG        99.8060   32.3490    9.0990 C.3   386  LEU386      0.0019
    173  CD1      100.1380   31.6610   10.4590 C.3   386  LEU386      0.0001
    174  CD2       99.5810   33.8460    9.2760 C.3   386  LEU386      0.0001
    175  N         95.5720   28.3880    7.5110 N.3   387  TYR387     -0.1241
    176  CA        94.3930   28.0860    8.3180 C.3   387  TYR387      0.1605
    177  C         93.5310   27.0840    7.6020 C.2   387  TYR387      0.2264
    178  O         93.5190   27.0620    6.3700 O.2   387  TYR387     -0.2867
    179  CB        93.5370   29.3450    8.5360 C.3   387  TYR387      0.0534
    180  CG        94.2500   30.4200    9.3200 C.ar  387  TYR387     -0.0201
    181  CD1       94.2310   30.4140   10.7150 C.ar  387  TYR387     -0.0009
    182  CD2       94.9620   31.4320    8.6700 C.ar  387  TYR387     -0.0009
    183  CE1       94.9010   31.3880   11.4420 C.ar  387  TYR387      0.0417
    184  CE2       95.6420   32.4170    9.4010 C.ar  387  TYR387      0.0417
    185  CZ        95.5970   32.3860   10.7780 C.ar  387  TYR387      0.1957
    186  OH        96.2490   33.3530   11.5220 O.3   387  TYR387     -0.2866
@<TRIPOS>BOND
     1   148   147    2
     2   156   157    1
     3   147   146    1
     4   158   159    2
     5   158   157    1
     6   145   146    1
     7   157   160    1
     8   137   136    2
     9   170   169    2
    10   146   149    1
    11   178   177    2
    12   167   168    1
    13   136   135    1
    14   134   135    1
    15   160   161    1
    16   169   168    1
    17   149   150    1
    18   168   171    1
    19   175   176    1
    20   135   138    1
    21   177   176    1
    22   150   152   ar
    23   150   151   ar
    24   152   154   ar
    25   161   163   ar
    26   161   162   ar
    27   171   172    1
    28   138   139    1
    29   151   153   ar
    30   176   179    1
    31   154   155   ar
    32   163   165   ar
    33   179   180    1
    34   112   111    1
    35   182   180   ar
    36   182   184   ar
    37   153   155   ar
    38   162   164   ar
    39   140   139    1
    40   140   141    1
    41   172   174    1
    42   172   173    1
    43   180   181   ar
    44   143   142    1
    45   184   185   ar
    46   113   111    1
    47   111   110    1
    48   165   166   ar
    49   110   107    1
    50   164   166   ar
    51    59    58    1
    52   141   142    2
    53   142   144    1
    54   107   106    1
    55   107   108    1
    56    51    50    1
    57   181   183   ar
    58   185   183   ar
    59   185   186    1
    60   117   116    2
    61    58    57    1
    62    58    60    1
    63    50    52    1
    64    50    47    1
    65   132   130   ar
    66   132   133   ar
    67   114   108   am
    68   114   115    1
    69    46    47    1
    70   130   127   ar
    71   108   109    2
    72    57    54    1
    73   116   115    1
    74   120   121    1
    75   133   131   ar
    76   124   125    1
    77   124   121    1
    78    47    48    1
    79    53    54    1
    80    53    48   am
    81   122   123    2
    82   122   121    1
    83   127   125   ar
    84   127   129   ar
    85   115   118    1
    86   125   126   ar
    87    56    55    2
    88    54    55    1
    89   131   129   ar
    90   129   128   ar
    91    48    49    2
    92   118   119    1
    93   126   128   ar
    94    41    40    1
    95    41    42    2
    96   105   103    1
    97   103   104    1
    98   103   100    1
    99    45    43    1
   100   102   101    2
   101    40    39    1
   102    40    43    1
   103    71    72    1
   104    37    35    1
   105    43    44    1
   106   100   101    1
   107   100    99    1
   108    75    72    1
   109    36    38    1
   110    36    35    1
   111    74    73    2
   112    72    73    1
   113    35    32    1
   114    28    27    2
   115    32    33    1
   116    32    31    1
   117    33    34    2
   118    99    93   am
   119    94    93    2
   120    27    31   am
   121    27    26    1
   122    67    69   ar
   123    67    66   ar
   124    69    70   ar
   125    93    92    1
   126    90    89    1
   127    29    26    1
   128    29    30    1
   129    83    82    2
   130    26    25    1
   131    13    12    2
   132    14    11    1
   133    14    15    1
   134    66    65    1
   135    66    68   ar
   136    70    68   ar
   137    95    92    1
   138    95    96    1
   139    82    84   am
   140    82    81    1
   141    92    91    1
   142    89    86    1
   143    65    62    1
   144    11    12    1
   145    11    10    1
   146    12    17   am
   147    15    16    1
   148    91    87   am
   149    88    87    2
   150    24    22    1
   151    87    86    1
   152    97    96    1
   153    81    80    1
   154    61    62    1
   155    96    98    1
   156    62    63    1
   157    86    85    1
   158    17    18    1
   159    18    19    1
   160    18    21    1
   161    20    19    2
   162    10    16    1
   163    22    21    1
   164    22    23    1
   165    80    77    1
   166    63    64    2
   167     8     7    2
   168    77    78    1
   169    77    76    1
   170    78    79    2
   171     7     9   am
   172     7     6    1
   173     4     3    2
   174     5     6    1
   175     5     2    1
   176     3     2    1
   177     2     1    1
