@<TRIPOS>MOLECULE
tmp/2zbaA00.pdb
 216 208 0 0 0
SMALL
GASTEIGER

@<TRIPOS>ATOM
      1  N         92.3730   38.2250   16.0960 N.3    20  THR20      -0.1218
      2  CA        91.7550   37.1780   15.2830 C.3    20  THR20       0.1862
      3  C         90.4560   37.6900   14.6740 C.2    20  THR20       0.2287
      4  O         89.6080   38.2220   15.3860 O.2    20  THR20      -0.2866
      5  CB        91.4700   35.9140   16.1060 C.3    20  THR20       0.1770
      6  OG1       92.7030   35.4010   16.6250 O.3    20  THR20      -0.2211
      7  CG2       90.8190   34.8190   15.2250 C.3    20  THR20       0.0375
      8  N         94.0520   38.4600   20.6180 N.3   150  HIS150     -0.1241
      9  CA        94.5380   37.0880   20.7150 C.3   150  HIS150      0.1621
     10  C         95.0800   36.6280   22.0900 C.2   150  HIS150      0.2264
     11  O         95.0790   35.4330   22.3780 O.2   150  HIS150     -0.2867
     12  CB        95.5170   36.7540   19.5880 C.3   150  HIS150      0.0745
     13  CG        95.5770   35.2870   19.2800 C.ar  150  HIS150      0.0817
     14  ND1       95.8300   34.7930   18.0190 N.ar  150  HIS150     -0.2268
     15  CD2       95.4060   34.2080   20.0790 C.ar  150  HIS150      0.1154
     16  CE1       95.8100   33.4720   18.0560 C.ar  150  HIS150      0.1986
     17  NE2       95.5570   33.0920   19.2960 N.ar  150  HIS150     -0.2212
     18  N         91.7940   32.4830   22.0890 N.3   153  ASP153     -0.1239
     19  CA        92.0980   31.7700   20.8460 C.3   153  ASP153      0.1674
     20  C         90.7980   31.6710   20.0080 C.2   153  ASP153      0.2266
     21  O         89.7540   32.1260   20.4740 O.2   153  ASP153     -0.2867
     22  CB        92.8070   30.4080   21.1030 C.3   153  ASP153      0.1410
     23  CG        92.0260   29.4640   22.0090 C.2   153  ASP153      0.3668
     24  OD1       90.7830   29.4880   22.0200 O.co2 153  ASP153     -0.2456
     25  OD2       92.6680   28.6650   22.7230 O.co2 153  ASP153     -0.2456
     26  N         88.8550   29.0580   19.2050 N.3   154  THR154     -0.1218
     27  CA        87.9170   28.2480   20.0150 C.3   154  THR154      0.1862
     28  C         87.1550   29.1030   21.0450 C.2   154  THR154      0.2287
     29  O         85.9230   29.0120   21.1730 O.2   154  THR154     -0.2866
     30  CB        88.6700   27.1030   20.7500 C.3   154  THR154      0.1770
     31  OG1       89.4360   26.3620   19.8050 O.3   154  THR154     -0.2211
     32  CG2       87.6940   26.1530   21.4630 C.3   154  THR154      0.0375
     33  N         92.0130   10.8050    3.2870 N.3   225  LYS225     -0.1245
     34  CA        92.0090   10.0910    4.5560 C.3   225  LYS225      0.1561
     35  C         92.2090    8.5750    4.3620 C.2   225  LYS225      0.2260
     36  O         92.9550    7.9460    5.1070 O.2   225  LYS225     -0.2867
     37  CB        90.7100   10.3730    5.3210 C.3   225  LYS225      0.0271
     38  CG        90.6860    9.7810    6.7230 C.3   225  LYS225      0.0035
     39  CD        89.3350    9.8360    7.3590 C.3   225  LYS225      0.0206
     40  CE        89.3700    9.0860    8.6860 C.3   225  LYS225      0.1093
     41  NZ        88.3370    9.5760    9.6400 N.3   225  LYS225     -0.1314
     42  N         96.9600    2.8950   14.0810 N.3   237  LYS237     -0.1231
     43  CA        95.7810    2.9890   14.9690 C.3   237  LYS237      0.1693
     44  C         94.7270    3.7330   14.1540 C.2   237  LYS237      0.2592
     45  O         93.8400    3.0990   13.5660 O.2   237  LYS237     -0.2718
     46  CB        95.9940    3.6060   16.3580 C.3   237  LYS237      0.0285
     47  CG        95.0280    3.0370   17.4240 C.3   237  LYS237      0.0035
     48  CD        93.5470    3.1340   17.0140 C.3   237  LYS237      0.0206
     49  CE        92.6280    2.2420   17.8400 C.3   237  LYS237      0.1093
     50  NZ        92.3120    2.8080   19.1830 N.3   237  LYS237     -0.1314
     51  N         94.8560    5.0620   14.0910 N.am  238  PHE238     -0.1962
     52  CA        94.0310    5.8810   13.2090 C.3   238  PHE238      0.1771
     53  C         94.6400    7.2530   12.8820 C.2   238  PHE238      0.2619
     54  O         95.5540    7.7410   13.5610 O.2   238  PHE238     -0.2715
     55  CB        92.6340    6.0600   13.8060 C.3   238  PHE238      0.0574
     56  CG        92.5730    7.0480   14.9290 C.ar  238  PHE238     -0.0200
     57  CD1       92.2320    8.3720   14.6800 C.ar  238  PHE238     -0.0042
     58  CD2       92.8500    6.6570   16.2440 C.ar  238  PHE238     -0.0042
     59  CE1       92.1760    9.2960   15.7080 C.ar  238  PHE238     -0.0003
     60  CE2       92.7940    7.5700   17.2820 C.ar  238  PHE238     -0.0003
     61  CZ        92.4460    8.8990   17.0130 C.ar  238  PHE238     -0.0000
     62  N         94.1170    7.8530   11.8190 N.am  239  VAL239     -0.1963
     63  CA        94.3000    9.2840   11.5400 C.3   239  VAL239      0.1727
     64  C         92.9330    9.8760   11.1420 C.2   239  VAL239      0.2617
     65  O         92.0500    9.1410   10.6390 O.2   239  VAL239     -0.2715
     66  CB        95.4430    9.5800   10.5000 C.3   239  VAL239      0.0290
     67  CG1       96.8120    9.2570   11.0920 C.3   239  VAL239      0.0023
     68  CG2       95.2290    8.8320    9.1670 C.3   239  VAL239      0.0023
     69  N         92.7570   11.1690   11.4320 N.am  240  SER240     -0.1936
     70  CA        91.5620   11.9330   11.0750 C.3   240  SER240      0.2055
     71  C         91.6170   12.5520    9.6630 C.2   240  SER240      0.2644
     72  O         92.6380   12.5290    8.9810 O.2   240  SER240     -0.2714
     73  CB        91.2980   13.0370   12.1140 C.3   240  SER240      0.2130
     74  OG        92.3680   13.9790   12.1490 O.3   240  SER240     -0.2179
     75  N         90.4980   13.0980    9.2230 N.am  241  THR241     -0.1936
     76  CA        90.4860   13.9040    8.0130 C.3   241  THR241      0.2028
     77  C         91.4940   15.0630    8.1260 C.2   241  THR241      0.2642
     78  O         92.3020   15.2820    7.2240 O.2   241  THR241     -0.2714
     79  CB        89.0620   14.4360    7.7260 C.3   241  THR241      0.1808
     80  OG1       88.1530   13.3300    7.6350 O.3   241  THR241     -0.2208
     81  CG2       89.0280   15.2720    6.4110 C.3   241  THR241      0.0379
     82  N         91.4580   15.7650    9.2570 N.am  242  ASP242     -0.1971
     83  CA        92.3220   16.9180    9.5210 C.3   242  ASP242      0.1709
     84  C         93.8050   16.5350    9.4910 C.2   242  ASP242      0.2293
     85  O         94.6240   17.2400    8.8780 O.2   242  ASP242     -0.2864
     86  CB        91.9590   17.5320   10.8770 C.3   242  ASP242      0.1436
     87  CG        92.4590   18.9500   11.0300 C.2   242  ASP242      0.3671
     88  OD1       93.6950   19.1440   11.0910 O.co2 242  ASP242     -0.2456
     89  OD2       91.6030   19.8610   11.1170 O.co2 242  ASP242     -0.2456
     90  N        101.6340   22.9500   14.2140 N.3   271  ARG271     -0.1231
     91  CA       100.1780   22.7080   14.1390 C.3   271  ARG271      0.1694
     92  C         99.4900   23.1210   15.4240 C.2   271  ARG271      0.2592
     93  O         99.7830   22.5640   16.4700 O.2   271  ARG271     -0.2718
     94  CB        99.9130   21.2140   13.8880 C.3   271  ARG271      0.0321
     95  CG        98.5010   20.8570   13.5020 C.3   271  ARG271      0.0489
     96  CD        98.3080   19.3390   13.6240 C.3   271  ARG271      0.2205
     97  NE        97.0890   18.8680   12.9640 N.pl3 271  ARG271     -0.0865
     98  CZ        96.6340   17.6210   13.0100 C.cat 271  ARG271      0.5346
     99  NH1       97.2830   16.6790   13.7010 N.pl3 271  ARG271      0.1354
    100  NH2       95.5070   17.3220   12.3690 N.pl3 271  ARG271      0.1354
    101  N         98.5620   24.0780   15.3540 N.am  272  ALA272     -0.1966
    102  CA        97.7950   24.4980   16.5340 C.3   272  ALA272      0.1728
    103  C         96.8920   23.3820   17.1230 C.2   272  ALA272      0.2616
    104  O         96.2930   22.5550   16.4000 O.2   272  ALA272     -0.2715
    105  CB        96.9400   25.7640   16.2320 C.3   272  ALA272      0.0334
    106  N         96.8080   23.3850   18.4440 N.am  273  VAL273     -0.1963
    107  CA        96.0320   22.3800   19.1600 C.3   273  VAL273      0.1727
    108  C         95.2610   23.0840   20.2670 C.2   273  VAL273      0.2616
    109  O         95.8350   23.7750   21.0990 O.2   273  VAL273     -0.2715
    110  CB        96.9180   21.1510   19.6870 C.3   273  VAL273      0.0290
    111  CG1       98.2250   21.6040   20.3140 C.3   273  VAL273      0.0023
    112  CG2       96.1250   20.2760   20.6690 C.3   273  VAL273      0.0023
    113  N         93.9410   22.9400   20.2330 N.am  274  ASP274     -0.1971
    114  CA        93.1060   23.2970   21.3590 C.3   274  ASP274      0.1709
    115  C         93.4790   22.4680   22.6040 C.2   274  ASP274      0.2293
    116  O         93.3560   21.2400   22.6000 O.2   274  ASP274     -0.2864
    117  CB        91.6410   23.0610   20.9690 C.3   274  ASP274      0.1436
    118  CG        90.6770   23.3600   22.0850 C.2   274  ASP274      0.3671
    119  OD1       91.0790   24.0070   23.0610 O.co2 274  ASP274     -0.2456
    120  OD2       89.5020   22.9350   21.9750 O.co2 274  ASP274     -0.2456
    121  N         95.7500   27.1220   24.1630 N.3   288  GLN288     -0.1245
    122  CA        96.1860   26.5920   22.8960 C.3   288  GLN288      0.1566
    123  C         97.6570   26.2520   23.0680 C.2   288  GLN288      0.2260
    124  O         98.3310   26.8360   23.9270 O.2   288  GLN288     -0.2867
    125  CB        96.0220   27.6960   21.8510 C.3   288  GLN288      0.0367
    126  CG        96.3310   27.3250   20.4180 C.3   288  GLN288      0.0905
    127  CD        96.0610   28.4810   19.4660 C.2   288  GLN288      0.2608
    128  OE1       95.0580   28.4740   18.7440 O.2   288  GLN288     -0.2717
    129  NE2       96.9310   29.4970   19.4850 N.am  288  GLN288     -0.0878
    130  N         99.5430   12.8330   14.1300 N.3   312  ARG312     -0.1245
    131  CA        98.6960   12.1640   15.1340 C.3   312  ARG312      0.1563
    132  C         99.4730   11.7190   16.3980 C.2   312  ARG312      0.2260
    133  O         98.9470   11.7710   17.5170 O.2   312  ARG312     -0.2867
    134  CB        97.9450   10.9870   14.4890 C.3   312  ARG312      0.0307
    135  CG        97.0440   10.1620   15.4220 C.3   312  ARG312      0.0489
    136  CD        96.0390   10.9880   16.2300 C.3   312  ARG312      0.2205
    137  NE        95.2160   11.8850   15.4150 N.pl3 312  ARG312     -0.0865
    138  CZ        94.1570   12.5590   15.8610 C.cat 312  ARG312      0.5346
    139  NH1       93.7540   12.4620   17.1210 N.pl3 312  ARG312      0.1354
    140  NH2       93.4850   13.3360   15.0310 N.pl3 312  ARG312      0.1354
    141  N         99.6890   14.0930   19.3950 N.3   315  LEU315     -0.1245
    142  CA        98.4590   14.3380   20.1670 C.3   315  LEU315      0.1561
    143  C         98.2780   13.4770   21.4380 C.2   315  LEU315      0.2260
    144  O         97.2260   13.5380   22.0980 O.2   315  LEU315     -0.2867
    145  CB        97.2130   14.2980   19.2700 C.3   315  LEU315      0.0270
    146  CG        97.2110   15.3830   18.1610 C.3   315  LEU315      0.0019
    147  CD1       96.0800   15.1210   17.1540 C.3   315  LEU315      0.0001
    148  CD2       97.1530   16.8120   18.7300 C.3   315  LEU315      0.0001
    149  N         96.8840   26.6160   11.5780 N.3   353  SER353     -0.1202
    150  CA        95.8150   26.5660   12.5560 C.3   353  SER353      0.2020
    151  C         94.4730   26.1210   11.9510 C.2   353  SER353      0.2619
    152  O         93.8370   26.8560   11.1940 O.2   353  SER353     -0.2717
    153  CB        95.6250   27.9170   13.2310 C.3   353  SER353      0.2103
    154  OG        94.5710   27.8320   14.1750 O.3   353  SER353     -0.2182
    155  N         94.0430   24.9230   12.3260 N.am  354  SER354     -0.1937
    156  CA        92.7470   24.3820   11.9140 C.3   354  SER354      0.2055
    157  C         91.6100   24.9450   12.7540 C.2   354  SER354      0.2643
    158  O         91.5370   24.6740   13.9470 O.2   354  SER354     -0.2714
    159  CB        92.7480   22.8590   12.0330 C.3   354  SER354      0.2130
    160  OG        91.4450   22.3530   11.8750 O.3   354  SER354     -0.2179
    161  N         90.7370   25.7290   12.1210 N.am  355  TRP355     -0.1959
    162  CA        89.4960   26.1840   12.7310 C.3   355  TRP355      0.1771
    163  C         88.3330   25.2850   12.3530 C.2   355  TRP355      0.2620
    164  O         87.1790   25.6790   12.5240 O.2   355  TRP355     -0.2715
    165  CB        89.1480   27.6050   12.2560 C.3   355  TRP355      0.0590
    166  CG        90.1360   28.6830   12.6710 C.ar  355  TRP355      0.0006
    167  CD1       91.2440   28.5360   13.4390 C.ar  355  TRP355      0.0946
    168  CD2       90.0320   30.0750   12.3770 C.ar  355  TRP355      0.0152
    169  NE1       91.8630   29.7500   13.6260 N.ar  355  TRP355     -0.2442
    170  CE2       91.1340   30.7140   12.9840 C.ar  355  TRP355      0.0810
    171  CE3       89.1110   30.8490   11.6520 C.ar  355  TRP355      0.0012
    172  CZ2       91.3500   32.0930   12.8800 C.ar  355  TRP355      0.0191
    173  CZ3       89.3250   32.2170   11.5530 C.ar  355  TRP355      0.0001
    174  CH2       90.4290   32.8250   12.1740 C.ar  355  TRP355      0.0015
    175  N         88.6370   24.0940   11.8420 N.am  356  ALA356     -0.1963
    176  CA        87.6240   23.1550   11.3140 C.3   356  ALA356      0.1728
    177  C         86.4770   22.9070   12.2600 C.2   356  ALA356      0.2616
    178  O         85.3570   22.7580   11.8220 O.2   356  ALA356     -0.2715
    179  CB        88.2680   21.8330   10.9250 C.3   356  ALA356      0.0334
    180  N         86.7710   22.8560   13.5610 N.am  357  LYS357     -0.1963
    181  CA        85.7660   22.5450   14.6080 C.3   357  LYS357      0.1728
    182  C         84.9160   23.7190   15.1160 C.2   357  LYS357      0.2616
    183  O         83.9270   23.5100   15.8320 O.2   357  LYS357     -0.2715
    184  CB        86.4260   21.8580   15.8130 C.3   357  LYS357      0.0311
    185  CG        86.9640   20.4570   15.5180 C.3   357  LYS357      0.0038
    186  CD        87.2930   19.7270   16.8180 C.3   357  LYS357      0.0206
    187  CE        87.5380   18.2460   16.5890 C.3   357  LYS357      0.1093
    188  NZ        87.5420   17.4870   17.8890 N.3   357  LYS357     -0.1314
    189  N         85.2760   24.9440   14.7490 N.am  358  VAL358     -0.1977
    190  CA        84.4980   26.0710   15.2400 C.3   358  VAL358      0.1596
    191  C         83.0910   26.0480   14.6380 C.2   358  VAL358      0.2287
    192  O         82.9000   25.6400   13.4780 O.2   358  VAL358     -0.2864
    193  CB        85.1900   27.4480   15.1010 C.3   358  VAL358      0.0276
    194  CG1       86.6940   27.3530   15.2860 C.3   358  VAL358      0.0022
    195  CG2       84.8150   28.1200   13.8390 C.3   358  VAL358      0.0022
    196  N         95.5720   28.3880    7.5110 N.3   387  TYR387     -0.1241
    197  CA        94.3930   28.0860    8.3180 C.3   387  TYR387      0.1605
    198  C         93.5310   27.0840    7.6020 C.2   387  TYR387      0.2264
    199  O         93.5190   27.0620    6.3700 O.2   387  TYR387     -0.2867
    200  CB        93.5370   29.3450    8.5360 C.3   387  TYR387      0.0534
    201  CG        94.2500   30.4200    9.3200 C.ar  387  TYR387     -0.0201
    202  CD1       94.2310   30.4140   10.7150 C.ar  387  TYR387     -0.0009
    203  CD2       94.9620   31.4320    8.6700 C.ar  387  TYR387     -0.0009
    204  CE1       94.9010   31.3880   11.4420 C.ar  387  TYR387      0.0417
    205  CE2       95.6420   32.4170    9.4010 C.ar  387  TYR387      0.0417
    206  CZ        95.5970   32.3860   10.7780 C.ar  387  TYR387      0.1957
    207  OH        96.2490   33.3530   11.5220 O.3   387  TYR387     -0.2866
    208  N         84.4830   23.8840    9.2670 N.3   390  LYS390     -0.1245
    209  CA        84.1020   22.8800    8.2830 C.3   390  LYS390      0.1561
    210  C         82.6440   23.0820    7.9090 C.2   390  LYS390      0.2260
    211  O         81.7540   23.1320    8.7880 O.2   390  LYS390     -0.2867
    212  CB        84.3770   21.4760    8.8480 C.3   390  LYS390      0.0271
    213  CG        83.8510   20.2950    8.0540 C.3   390  LYS390      0.0035
    214  CD        84.0300   19.0350    8.8850 C.3   390  LYS390      0.0206
    215  CE        82.9560   17.9890    8.6200 C.3   390  LYS390      0.1093
    216  NZ        82.9350   17.0080    9.7690 N.3   390  LYS390     -0.1314
@<TRIPOS>BOND
     1    33    34    1
     2    35    34    1
     3    35    36    2
     4    34    37    1
     5    37    38    1
     6   199   198    2
     7    81    79    1
     8    38    39    1
     9    78    77    2
    10    39    40    1
    11   196   197    1
    12   198   197    1
    13    80    79    1
    14    79    76    1
    15   210   209    1
    16   210   211    2
    17    76    77    1
    18    76    75    1
    19   213   212    1
    20   213   214    1
    21    77    82   am
    22   209   212    1
    23   209   208    1
    24   197   200    1
    25   200   201    1
    26   215   214    1
    27   215   216    1
    28   203   201   ar
    29   203   205   ar
    30    40    41    1
    31    85    84    2
    32    72    71    2
    33    68    66    1
    34    75    71   am
    35    82    83    1
    36   201   202   ar
    37   205   206   ar
    38    84    83    1
    39    83    86    1
    40    71    70    1
    41    66    67    1
    42    66    63    1
    43    65    64    2
    44   202   204   ar
    45   206   204   ar
    46   206   207    1
    47    86    87    1
    48   179   176    1
    49    87    88   ar
    50    87    89   ar
    51    70    69    1
    52    70    73    1
    53    64    69   am
    54    64    63    1
    55   152   151    2
    56   176   175    1
    57   176   177    1
    58    63    62    1
    59   173   171   ar
    60   173   174   ar
    61   149   150    1
    62   171   168   ar
    63    62    53   am
    64   178   177    2
    65   175   163   am
    66   160   159    1
    67   156   159    1
    68   156   155    1
    69   156   157    1
    70   151   155   am
    71   151   150    1
    72    73    74    1
    73   161   162    1
    74   161   157   am
    75   174   172   ar
    76   165   166    1
    77   165   162    1
    78   177   180   am
    79   163   164    2
    80   163   162    1
    81   100    98    1
    82   168   166   ar
    83   168   170   ar
    84   150   153    1
    85   166   167   ar
    86   157   158    2
    87   172   170   ar
    88    53    52    1
    89    53    54    2
    90    97    98    2
    91    97    96    1
    92   170   169   ar
    93    98    99    1
    94    52    55    1
    95    52    51    1
    96   153   154    1
    97   167   169   ar
    98   192   191    2
    99    95    96    1
   100    95    94    1
   101   180   181    1
   102    45    44    2
   103    55    56    1
   104   195   193    1
   105    94    91    1
   106    42    43    1
   107    51    44   am
   108   130   131    1
   109    91    90    1
   110    91    92    1
   111    44    43    1
   112   134   131    1
   113   134   135    1
   114   181   182    1
   115   181   184    1
   116   191   190    1
   117     3     2    1
   118     3     4    2
   119    57    56   ar
   120    57    59   ar
   121   189   182   am
   122   189   190    1
   123    56    58   ar
   124    43    46    1
   125   140   138    1
   126   193   190    1
   127   193   194    1
   128   182   183    2
   129   131   132    1
   130     7     5    1
   131     2     1    1
   132     2     5    1
   133   101    92   am
   134   101   102    1
   135   137   138    2
   136   137   136    1
   137   135   136    1
   138    92    93    2
   139   185   184    1
   140   185   186    1
   141    59    61   ar
   142   138   139    1
   143     5     6    1
   144   105   102    1
   145    58    60   ar
   146    46    47    1
   147   132   133    2
   148   104   103    2
   149   102   103    1
   150   187   186    1
   151   187   188    1
   152    61    60   ar
   153    48    47    1
   154    48    49    1
   155   103   106   am
   156   147   146    1
   157    49    50    1
   158    14    16   ar
   159    14    13   ar
   160    16    17   ar
   161   146   148    1
   162   146   145    1
   163   106   107    1
   164   128   127    2
   165   107   110    1
   166   107   108    1
   167    26    27    1
   168   145   142    1
   169    13    12    1
   170    13    15   ar
   171    17    15   ar
   172   141   142    1
   173   127   129   am
   174   127   126    1
   175    12     9    1
   176   110   111    1
   177   110   112    1
   178    31    30    1
   179    20    21    2
   180    20    19    1
   181    27    30    1
   182    27    28    1
   183   142   143    1
   184   113   108   am
   185   113   114    1
   186   108   109    2
   187   126   125    1
   188     8     9    1
   189     9    10    1
   190    30    32    1
   191    19    22    1
   192    19    18    1
   193   117   114    1
   194   117   118    1
   195    28    29    2
   196    22    23    1
   197   114   115    1
   198   143   144    2
   199   125   122    1
   200   120   118   ar
   201    23    24   ar
   202    23    25   ar
   203   118   119   ar
   204    10    11    2
   205   116   115    2
   206   122   123    1
   207   122   121    1
   208   123   124    2
