@<TRIPOS>MOLECULE
tmp/2zbaD01.pdb
 191 181 0 0 0
SMALL
GASTEIGER

@<TRIPOS>ATOM
      1  N        114.9210   48.4190  -51.6750 N.3    11  GLN11      -0.1245
      2  CA       116.0030   47.4550  -51.9110 C.3    11  GLN11       0.1566
      3  C        115.5400   46.4240  -52.9310 C.2    11  GLN11       0.2260
      4  O        114.5150   45.7570  -52.7280 O.2    11  GLN11      -0.2867
      5  CB       116.4060   46.7280  -50.6350 C.3    11  GLN11       0.0367
      6  CG       117.1490   47.5620  -49.6420 C.3    11  GLN11       0.0905
      7  CD       117.4990   46.7770  -48.4020 C.2    11  GLN11       0.2608
      8  OE1      118.1610   45.7390  -48.4750 O.2    11  GLN11      -0.2717
      9  NE2      117.0750   47.2780  -47.2460 N.am   11  GLN11      -0.0878
     10  N        116.6770   43.3740  -53.8900 N.3    13  PRO13      -0.2102
     11  CA       116.3630   42.0230  -53.3780 C.3    13  PRO13       0.1504
     12  C        114.9350   41.8770  -52.8080 C.2    13  PRO13       0.2575
     13  O        114.1820   41.0130  -53.2590 O.2    13  PRO13      -0.2718
     14  CB       117.4110   41.7950  -52.2710 C.3    13  PRO13       0.0282
     15  CG       118.0900   43.1200  -52.0570 C.3    13  PRO13       0.0208
     16  CD       117.9560   43.8720  -53.3420 C.3    13  PRO13       0.0893
     17  N        114.5690   42.7290  -51.8460 N.am   14  LEU14      -0.1980
     18  CA       113.2660   42.6580  -51.1590 C.3    14  LEU14       0.1596
     19  C        112.0780   42.2990  -52.0420 C.2    14  LEU14       0.2287
     20  O        111.1350   41.6520  -51.5690 O.2    14  LEU14      -0.2864
     21  CB       112.9710   43.9630  -50.4140 C.3    14  LEU14       0.0297
     22  CG       113.4610   44.0900  -48.9650 C.3    14  LEU14       0.0022
     23  CD1      112.8110   43.0390  -48.0330 C.3    14  LEU14       0.0001
     24  CD2      114.9730   43.8470  -48.9240 C.3    14  LEU14       0.0001
     25  N        111.5230   38.4860  -52.1560 N.3    17  ILE17      -0.1245
     26  CA       111.3430   37.7570  -50.8980 C.3    17  ILE17       0.1561
     27  C        109.8920   37.7920  -50.3800 C.2    17  ILE17       0.2260
     28  O        109.1590   38.7770  -50.5530 O.2    17  ILE17      -0.2867
     29  CB       112.3590   38.2110  -49.7970 C.3    17  ILE17       0.0252
     30  CG1      113.7940   38.2410  -50.3490 C.3    17  ILE17       0.0019
     31  CG2      112.2820   37.3230  -48.5390 C.3    17  ILE17       0.0019
     32  CD1      114.7770   39.0420  -49.4860 C.3    17  ILE17       0.0001
     33  N        108.0700   36.7230  -46.6560 N.3    19  THR19      -0.1218
     34  CA       108.1880   36.3000  -45.2730 C.3    19  THR19       0.1862
     35  C        107.0080   35.4070  -44.9400 C.2    19  THR19       0.2287
     36  O        105.8550   35.7910  -45.1710 O.2    19  THR19      -0.2866
     37  CB       108.1380   37.4990  -44.3190 C.3    19  THR19       0.1770
     38  OG1      109.1870   38.4220  -44.6430 O.3    19  THR19      -0.2211
     39  CG2      108.2890   37.0590  -42.8900 C.3    19  THR19       0.0375
     40  N        109.5050   31.4260  -50.2770 N.3   115  THR115     -0.1203
     41  CA       110.2460   32.5380  -49.6780 C.3   115  THR115      0.1994
     42  C        111.0340   33.3080  -50.7520 C.2   115  THR115      0.2617
     43  O        110.9180   34.5290  -50.8570 O.2   115  THR115     -0.2717
     44  CB       111.1900   32.0430  -48.5520 C.3   115  THR115      0.1784
     45  OG1      110.4160   31.4180  -47.5290 O.3   115  THR115     -0.2211
     46  CG2      111.9620   33.1850  -47.9180 C.3   115  THR115      0.0376
     47  N        111.7980   32.5790  -51.5640 N.am  116  LEU116     -0.1979
     48  CA       112.6700   33.1900  -52.5810 C.3   116  LEU116      0.1596
     49  C        112.1080   33.0010  -53.9870 C.2   116  LEU116      0.2287
     50  O        111.7130   31.8980  -54.3590 O.2   116  LEU116     -0.2864
     51  CB       114.0910   32.6420  -52.4550 C.3   116  LEU116      0.0297
     52  CG       115.0210   33.2320  -51.3830 C.3   116  LEU116      0.0022
     53  CD1      114.2420   33.7060  -50.1640 C.3   116  LEU116      0.0001
     54  CD2      116.0810   32.2180  -50.9910 C.3   116  LEU116      0.0001
     55  N        108.2040   41.1700  -48.9580 N.3   141  HIS141     -0.1241
     56  CA       109.1760   41.8210  -48.0630 C.3   141  HIS141      0.1621
     57  C        109.5110   43.3130  -48.2950 C.2   141  HIS141      0.2264
     58  O        109.9900   43.9770  -47.3810 O.2   141  HIS141     -0.2867
     59  CB       110.4710   41.0140  -47.9180 C.3   141  HIS141      0.0745
     60  CG       111.1500   41.2300  -46.6020 C.ar  141  HIS141      0.0817
     61  ND1      111.8310   40.2350  -45.9410 N.ar  141  HIS141     -0.2268
     62  CD2      111.2280   42.3300  -45.8100 C.ar  141  HIS141      0.1154
     63  CE1      112.3050   40.7110  -44.8010 C.ar  141  HIS141      0.1986
     64  NE2      111.9550   41.9830  -44.7000 N.ar  141  HIS141     -0.2212
     65  N        125.2180   40.4570  -37.9630 N.3   231  CYS231     -0.1235
     66  CA       124.2120   41.3970  -38.4780 C.3   231  CYS231      0.1677
     67  C        122.8680   41.1310  -37.8150 C.2   231  CYS231      0.2270
     68  O        122.2390   40.1030  -38.0770 O.2   231  CYS231     -0.2867
     69  CB       124.0320   41.2560  -39.9830 C.3   231  CYS231      0.0956
     70  SG       125.5310   41.3790  -40.9650 S.3   231  CYS231     -0.0801
     71  N        118.9640   42.2570  -37.1660 N.3   233  ALA233     -0.1245
     72  CA       117.7700   43.0320  -37.5450 C.3   233  ALA233      0.1562
     73  C        117.2160   43.8540  -36.3660 C.2   233  ALA233      0.2260
     74  O        117.1870   43.3790  -35.2240 O.2   233  ALA233     -0.2867
     75  CB       116.6910   42.1100  -38.1080 C.3   233  ALA233      0.0290
     76  N        107.7260   48.5830  -43.9780 N.3   247  LEU247     -0.1245
     77  CA       109.0540   48.0430  -43.7360 C.3   247  LEU247      0.1561
     78  C        109.8470   49.1710  -43.1160 C.2   247  LEU247      0.2260
     79  O        110.3050   50.0850  -43.8130 O.2   247  LEU247     -0.2867
     80  CB       109.7040   47.5940  -45.0410 C.3   247  LEU247      0.0270
     81  CG       110.8910   46.6120  -45.0200 C.3   247  LEU247      0.0019
     82  CD1      111.2510   46.3190  -46.4410 C.3   247  LEU247      0.0001
     83  CD2      112.1080   47.1720  -44.2890 C.3   247  LEU247      0.0001
     84  N        112.8800   49.2210  -40.6690 N.3   249  GLN249     -0.1231
     85  CA       113.7890   48.2320  -40.1310 C.3   249  GLN249      0.1698
     86  C        115.2000   48.5710  -40.5800 C.2   249  GLN249      0.2592
     87  O        115.3930   49.0130  -41.7000 O.2   249  GLN249     -0.2718
     88  CB       113.4170   46.8720  -40.7270 C.3   249  GLN249      0.0381
     89  CG       113.9910   45.6740  -39.9970 C.3   249  GLN249      0.0905
     90  CD       113.7830   44.3850  -40.7470 C.2   249  GLN249      0.2608
     91  OE1      113.6350   44.3740  -41.9710 O.2   249  GLN249     -0.2717
     92  NE2      113.7910   43.2850  -40.0220 N.am  249  GLN249     -0.0878
     93  N        116.1750   48.3220  -39.7130 N.am  250  ASN250     -0.1974
     94  CA       117.5950   48.3910  -40.0670 C.3   250  ASN250      0.1688
     95  C        118.2840   47.1800  -39.4280 C.2   250  ASN250      0.2292
     96  O        117.6370   46.2170  -38.9710 O.2   250  ASN250     -0.2864
     97  CB       118.2250   49.7020  -39.5470 C.3   250  ASN250      0.1181
     98  CG       119.3870   50.2350  -40.4260 C.2   250  ASN250      0.2629
     99  OD1      119.5200   51.4510  -40.6070 O.2   250  ASN250     -0.2716
    100  ND2      120.2250   49.3500  -40.9390 N.am  250  ASN250     -0.0877
    101  N        122.6010   46.9360  -50.0120 N.3   301  SER301     -0.1202
    102  CA       122.1870   45.6580  -49.4180 C.3   301  SER301      0.2020
    103  C        122.6680   45.5800  -47.9770 C.2   301  SER301      0.2619
    104  O        123.8660   45.6910  -47.7120 O.2   301  SER301     -0.2717
    105  CB       122.7390   44.4680  -50.2080 C.3   301  SER301      0.2103
    106  OG       124.1160   44.3380  -50.1130 O.3   301  SER301     -0.2182
    107  N        121.7260   45.3650  -47.0590 N.am  302  LEU302     -0.1965
    108  CA       121.9930   45.3670  -45.6170 C.3   302  LEU302      0.1728
    109  C        122.9420   44.2560  -45.1300 C.2   302  LEU302      0.2616
    110  O        123.2560   44.1900  -43.9450 O.2   302  LEU302     -0.2715
    111  CB       120.6700   45.3500  -44.8320 C.3   302  LEU302      0.0311
    112  CG       119.8380   46.6310  -44.8740 C.3   302  LEU302      0.0022
    113  CD1      118.5230   46.3760  -44.1760 C.3   302  LEU302      0.0001
    114  CD2      120.5390   47.7840  -44.2030 C.3   302  LEU302      0.0001
    115  N        123.4130   43.4110  -46.0550 N.am  303  THR303     -0.1951
    116  CA       124.2550   42.2510  -45.7310 C.3   303  THR303      0.1897
    117  C        125.6050   42.1970  -46.4890 C.2   303  THR303      0.2313
    118  O        126.3000   41.1740  -46.4420 O.2   303  THR303     -0.2863
    119  CB       123.4920   40.9190  -45.9690 C.3   303  THR303      0.1794
    120  OG1      123.1200   40.8560  -47.3370 O.3   303  THR303     -0.2208
    121  CG2      122.2730   40.7950  -45.0760 C.3   303  THR303      0.0378
    122  N        120.9750   37.4410  -38.2620 N.3   310  LEU310     -0.1231
    123  CA       119.8640   37.1160  -37.3840 C.3   310  LEU310      0.1693
    124  C        118.7460   38.1660  -37.3870 C.2   310  LEU310      0.2592
    125  O        119.0090   39.3740  -37.3450 O.2   310  LEU310     -0.2718
    126  CB       120.3720   36.9230  -35.9530 C.3   310  LEU310      0.0284
    127  CG       119.2830   36.7690  -34.8870 C.3   310  LEU310      0.0019
    128  CD1      118.6320   35.3850  -34.9690 C.3   310  LEU310      0.0001
    129  CD2      119.8440   37.0230  -33.5040 C.3   310  LEU310      0.0001
    130  N        117.5090   37.6780  -37.4160 N.am  311  SER311     -0.1952
    131  CA       116.3240   38.4960  -37.1990 C.3   311  SER311      0.1924
    132  C        115.4490   37.8910  -36.1030 C.2   311  SER311      0.2314
    133  O        114.9570   36.7600  -36.2290 O.2   311  SER311     -0.2863
    134  CB       115.5160   38.6240  -38.4880 C.3   311  SER311      0.2116
    135  OG       114.2900   39.2980  -38.2170 O.3   311  SER311     -0.2180
    136  N        112.1010   37.5140  -34.1710 N.3   313  TRP313     -0.1241
    137  CA       110.6500   37.7210  -34.1960 C.3   313  TRP313      0.1605
    138  C        110.0710   37.5320  -32.7920 C.2   313  TRP313      0.2264
    139  O        108.8520   37.4040  -32.6320 O.2   313  TRP313     -0.2867
    140  CB       109.9680   36.7420  -35.1660 C.3   313  TRP313      0.0550
    141  CG       110.4100   36.8510  -36.6070 C.ar  313  TRP313      0.0003
    142  CD1      111.2620   37.7700  -37.1390 C.ar  313  TRP313      0.0946
    143  CD2      109.9910   36.0180  -37.6930 C.ar  313  TRP313      0.0152
    144  NE1      111.4060   37.5630  -38.4940 N.ar  313  TRP313     -0.2442
    145  CE2      110.6310   36.4960  -38.8600 C.ar  313  TRP313      0.0810
    146  CE3      109.1230   34.9230  -37.7990 C.ar  313  TRP313      0.0012
    147  CZ2      110.4460   35.9070  -40.1110 C.ar  313  TRP313      0.0191
    148  CZ3      108.9360   34.3440  -39.0550 C.ar  313  TRP313      0.0001
    149  CH2      109.5920   34.8370  -40.1830 C.ar  313  TRP313      0.0015
    150  N        112.7520   26.8880  -45.9830 N.3   338  PHE338     -0.1241
    151  CA       113.1200   27.1540  -47.3750 C.3   338  PHE338      0.1605
    152  C        114.5660   26.6930  -47.6580 C.2   338  PHE338      0.2264
    153  O        115.1790   26.0580  -46.8070 O.2   338  PHE338     -0.2867
    154  CB       112.8640   28.6230  -47.7530 C.3   338  PHE338      0.0534
    155  CG       113.6070   29.6340  -46.9070 C.ar  338  PHE338     -0.0203
    156  CD1      114.7050   30.3130  -47.4300 C.ar  338  PHE338     -0.0042
    157  CD2      113.1780   29.9490  -45.6100 C.ar  338  PHE338     -0.0042
    158  CE1      115.3890   31.2560  -46.6790 C.ar  338  PHE338     -0.0003
    159  CE2      113.8510   30.9040  -44.8470 C.ar  338  PHE338     -0.0003
    160  CZ       114.9600   31.5610  -45.3850 C.ar  338  PHE338     -0.0000
    161  N        120.6340   28.2310  -46.2510 N.3   341  PHE341     -0.1241
    162  CA       121.1080   29.5810  -46.4810 C.3   341  PHE341      0.1605
    163  C        122.0360   29.8280  -45.3190 C.2   341  PHE341      0.2264
    164  O        121.6260   30.3540  -44.2810 O.2   341  PHE341     -0.2867
    165  CB       119.9140   30.5480  -46.4640 C.3   341  PHE341      0.0534
    166  CG       120.1910   31.8670  -47.1230 C.ar  341  PHE341     -0.0203
    167  CD1      120.2800   31.9380  -48.5220 C.ar  341  PHE341     -0.0042
    168  CD2      120.3500   33.0100  -46.3930 C.ar  341  PHE341     -0.0042
    169  CE1      120.4940   33.1400  -49.1600 C.ar  341  PHE341     -0.0003
    170  CE2      120.5620   34.2250  -47.0210 C.ar  341  PHE341     -0.0003
    171  CZ       120.6340   34.2830  -48.4140 C.ar  341  PHE341     -0.0000
    172  N        122.2220   32.2740  -41.8550 N.3   344  LEU344     -0.1245
    173  CA       120.9270   32.9320  -41.6290 C.3   344  LEU344      0.1561
    174  C        120.1970   32.2910  -40.4390 C.2   344  LEU344      0.2260
    175  O        120.1840   31.0520  -40.2860 O.2   344  LEU344     -0.2867
    176  CB       120.0770   32.9040  -42.9080 C.3   344  LEU344      0.0270
    177  CG       118.7360   33.6430  -43.0280 C.3   344  LEU344      0.0019
    178  CD1      118.9290   35.1380  -43.1050 C.3   344  LEU344      0.0001
    179  CD2      117.9930   33.1700  -44.2400 C.3   344  LEU344      0.0001
    180  N        116.8540   33.0020  -37.1550 N.3   345  TYR345     -0.1241
    181  CA       115.6330   33.6560  -36.7100 C.3   345  TYR345      0.1605
    182  C        115.3630   33.2340  -35.2860 C.2   345  TYR345      0.2264
    183  O        115.7200   32.1230  -34.8910 O.2   345  TYR345     -0.2867
    184  CB       114.4430   33.2110  -37.5620 C.3   345  TYR345      0.0534
    185  CG       114.4660   33.6510  -38.9920 C.ar  345  TYR345     -0.0201
    186  CD1      113.9850   34.9100  -39.3600 C.ar  345  TYR345     -0.0009
    187  CD2      114.9570   32.8050  -39.9930 C.ar  345  TYR345     -0.0009
    188  CE1      113.9800   35.3280  -40.6930 C.ar  345  TYR345      0.0417
    189  CE2      114.9650   33.2060  -41.3290 C.ar  345  TYR345      0.0417
    190  CZ       114.4810   34.4750  -41.6720 C.ar  345  TYR345      0.1957
    191  OH       114.4810   34.8930  -42.9900 O.3   345  TYR345     -0.2866
@<TRIPOS>BOND
     1    50    49    2
     2    49    48    1
     3    10    11    1
     4    10    16    1
     5    11    12    1
     6    11    14    1
     7    16    15    1
     8    13    12    2
     9     3     4    2
    10     3     2    1
    11    12    17   am
    12    48    51    1
    13    48    47    1
    14    51    52    1
    15    14    15    1
    16    25    26    1
    17    19    20    2
    18    19    18    1
    19     2     1    1
    20     2     5    1
    21    17    18    1
    22    47    42   am
    23    52    54    1
    24    52    53    1
    25    18    21    1
    26    26    27    1
    27    26    29    1
    28    43    42    2
    29    42    41    1
    30     5     6    1
    31    28    27    2
    32    21    22    1
    33    30    29    1
    34    30    32    1
    35    40    41    1
    36   105   106    1
    37   105   102    1
    38   101   102    1
    39    29    31    1
    40    41    44    1
    41     6     7    1
    42   102   103    1
    43   169   167   ar
    44   169   171   ar
    45    22    24    1
    46    22    23    1
    47    55    56    1
    48    44    46    1
    49    44    45    1
    50   167   166   ar
    51     8     7    2
    52   171   170   ar
    53     7     9   am
    54    57    56    1
    55    57    58    2
    56    56    59    1
    57   103   104    2
    58   103   107   am
    59    59    60    1
    60   154   151    1
    61   154   155    1
    62   152   151    1
    63   152   153    2
    64   156   155   ar
    65   156   158   ar
    66   151   150    1
    67   120   119    1
    68   166   165    1
    69   166   168   ar
    70   107   108    1
    71   170   168   ar
    72   155   157   ar
    73   158   160   ar
    74    33    34    1
    75    60    61   ar
    76    60    62   ar
    77   117   118    2
    78   117   116    1
    79   162   165    1
    80   162   161    1
    81   162   163    1
    82    82    81    1
    83   115   116    1
    84   115   109   am
    85   119   116    1
    86   119   121    1
    87    61    63   ar
    88    62    64   ar
    89   108   109    1
    90   108   111    1
    91   157   159   ar
    92   160   159   ar
    93   163   164    2
    94    34    35    1
    95    34    37    1
    96    36    35    2
    97   109   110    2
    98    80    81    1
    99    80    77    1
   100    81    83    1
   101   112   111    1
   102   112   114    1
   103   112   113    1
   104    63    64   ar
   105    38    37    1
   106    37    39    1
   107   179   177    1
   108    76    77    1
   109    79    78    2
   110    77    78    1
   111   178   177    1
   112   177   176    1
   113   191   190    1
   114   176   173    1
   115    91    90    2
   116   172   173    1
   117    87    86    2
   118   190   189   ar
   119   190   188   ar
   120   173   174    1
   121   189   187   ar
   122    70    69    1
   123   100    98   am
   124    90    92   am
   125    90    89    1
   126    88    85    1
   127    88    89    1
   128   188   186   ar
   129    84    85    1
   130    99    98    2
   131    86    85    1
   132    86    93   am
   133   174   175    2
   134    98    97    1
   135   149   147   ar
   136   149   148   ar
   137   147   145   ar
   138    94    93    1
   139    94    97    1
   140    94    95    1
   141   187   185   ar
   142    69    66    1
   143    95    96    2
   144   186   185   ar
   145   148   146   ar
   146   185   184    1
   147   145   144   ar
   148   145   143   ar
   149   144   142   ar
   150   134   135    1
   151   134   131    1
   152    66    65    1
   153    66    67    1
   154   122   123    1
   155    75    72    1
   156    68    67    2
   157   146   143   ar
   158   143   141   ar
   159   184   181    1
   160    72    71    1
   161    72    73    1
   162   130   124   am
   163   130   131    1
   164   124   123    1
   165   124   125    2
   166   123   126    1
   167   131   132    1
   168   180   181    1
   169   142   141   ar
   170   181   182    1
   171   141   140    1
   172    73    74    2
   173   133   132    2
   174   126   127    1
   175   182   183    2
   176   140   137    1
   177   128   127    1
   178   127   129    1
   179   137   136    1
   180   137   138    1
   181   138   139    2
