@<TRIPOS>MOLECULE
tmp/2zbaC01.pdb
 199 188 0 0 0
SMALL
GASTEIGER

@<TRIPOS>ATOM
      1  N         47.1600   50.4980  -34.6130 N.3    10  ILE10      -0.1245
      2  CA        48.1240   51.4540  -34.0370 C.3    10  ILE10       0.1561
      3  C         48.6750   52.3780  -35.1110 C.2    10  ILE10       0.2260
      4  O         49.0420   53.5220  -34.8230 O.2    10  ILE10      -0.2867
      5  CB        49.2350   50.7080  -33.2070 C.3    10  ILE10       0.0252
      6  CG1       48.5820   50.0040  -32.0040 C.3    10  ILE10       0.0019
      7  CG2       50.3620   51.6680  -32.7420 C.3    10  ILE10       0.0019
      8  CD1       49.4840   48.9610  -31.2940 C.3    10  ILE10       0.0001
      9  N         46.9840   56.3190  -36.3210 N.3    13  GLN13      -0.1245
     10  CA        47.2510   57.6380  -35.7400 C.3    13  GLN13       0.1566
     11  C         47.5070   58.6560  -36.8250 C.2    13  GLN13       0.2260
     12  O         48.3250   58.4060  -37.7290 O.2    13  GLN13      -0.2867
     13  CB        48.4750   57.6220  -34.8380 C.3    13  GLN13       0.0367
     14  CG        48.4720   56.6000  -33.7680 C.3    13  GLN13       0.0905
     15  CD        49.8360   56.4710  -33.1470 C.2    13  GLN13       0.2608
     16  OE1       50.4640   57.4760  -32.8070 O.2    13  GLN13      -0.2717
     17  NE2       50.3140   55.2340  -33.0010 N.am   13  GLN13      -0.0878
     18  N         49.2680   61.5920  -36.7910 N.3    15  PRO15      -0.2102
     19  CA        50.6730   61.9350  -37.0610 C.3    15  PRO15       0.1504
     20  C         51.3780   61.0240  -38.0930 C.2    15  PRO15       0.2575
     21  O         52.1830   61.5070  -38.8910 O.2    15  PRO15      -0.2718
     22  CB        51.3550   61.8270  -35.6750 C.3    15  PRO15       0.0282
     23  CG        50.3360   61.2550  -34.7330 C.3    15  PRO15       0.0208
     24  CD        48.9950   61.5750  -35.3390 C.3    15  PRO15       0.0893
     25  N         51.0430   59.7320  -38.0990 N.am   16  LEU16      -0.1980
     26  CA        51.8050   58.7470  -38.8670 C.3    16  LEU16       0.1596
     27  C         51.6860   58.8460  -40.3920 C.2    16  LEU16       0.2287
     28  O         52.5830   58.3960  -41.1010 O.2    16  LEU16      -0.2864
     29  CB        51.5000   57.3380  -38.3680 C.3    16  LEU16       0.0297
     30  CG        51.9070   57.0050  -36.9340 C.3    16  LEU16       0.0022
     31  CD1       51.4910   55.5910  -36.6490 C.3    16  LEU16       0.0001
     32  CD2       53.4110   57.1870  -36.6250 C.3    16  LEU16       0.0001
     33  N         54.3100   61.2170  -42.0970 N.3    19  ILE19      -0.1245
     34  CA        55.7180   60.8660  -41.8510 C.3    19  ILE19       0.1561
     35  C         56.2500   59.7340  -42.7540 C.2    19  ILE19       0.2260
     36  O         55.5940   58.7150  -42.9470 O.2    19  ILE19      -0.2867
     37  CB        55.9430   60.4900  -40.3620 C.3    19  ILE19       0.0252
     38  CG1       55.5840   61.6820  -39.4520 C.3    19  ILE19       0.0019
     39  CG2       57.4010   60.0420  -40.0850 C.3    19  ILE19       0.0019
     40  CD1       55.4120   61.2730  -38.0380 C.3    19  ILE19       0.0001
     41  N         59.7130   57.3180  -42.9000 N.3    21  THR21      -0.1218
     42  CA        60.9650   56.8730  -42.2980 C.3    21  THR21       0.1862
     43  C         61.9870   56.5830  -43.3880 C.2    21  THR21       0.2287
     44  O         61.7050   55.8690  -44.3510 O.2    21  THR21      -0.2866
     45  CB        60.7510   55.6460  -41.4160 C.3    21  THR21       0.1770
     46  OG1       59.9200   56.0250  -40.3240 O.3    21  THR21      -0.2211
     47  CG2       62.0460   55.1920  -40.8340 C.3    21  THR21       0.0375
     48  N         60.9040   63.4430  -44.8570 N.3   120  THR120     -0.1203
     49  CA        60.3740   62.7910  -43.6630 C.3   120  THR120      0.1994
     50  C         59.0130   63.3640  -43.2780 C.2   120  THR120      0.2617
     51  O         58.0830   62.6200  -43.0000 O.2   120  THR120     -0.2717
     52  CB        61.3490   62.9360  -42.4590 C.3   120  THR120      0.1784
     53  OG1       62.5810   62.2960  -42.7800 O.3   120  THR120     -0.2211
     54  CG2       60.7640   62.3020  -41.1620 C.3   120  THR120      0.0376
     55  N         58.9130   64.6910  -43.2840 N.am  121  LEU121     -0.1979
     56  CA        57.7290   65.3700  -42.7850 C.3   121  LEU121      0.1596
     57  C         56.9830   65.9930  -43.9300 C.2   121  LEU121      0.2287
     58  O         57.6000   66.4150  -44.9050 O.2   121  LEU121     -0.2864
     59  CB        58.1160   66.4610  -41.7860 C.3   121  LEU121      0.0297
     60  CG        58.8850   66.0740  -40.5280 C.3   121  LEU121      0.0022
     61  CD1       59.4010   67.3440  -39.8160 C.3   121  LEU121      0.0001
     62  CD2       58.0050   65.2430  -39.6130 C.3   121  LEU121      0.0001
     63  N         55.0620   55.7950  -42.6520 N.3   148  HIS148     -0.1241
     64  CA        55.0480   55.3750  -41.2340 C.3   148  HIS148      0.1621
     65  C         53.7260   54.7720  -40.7220 C.2   148  HIS148      0.2264
     66  O         53.7420   54.0200  -39.7770 O.2   148  HIS148     -0.2867
     67  CB        55.5680   56.4910  -40.3070 C.3   148  HIS148      0.0745
     68  CG        56.2180   55.9850  -39.0450 C.ar  148  HIS148      0.0817
     69  ND1       57.2220   56.6750  -38.3990 N.ar  148  HIS148     -0.2268
     70  CD2       56.0140   54.8590  -38.3200 C.ar  148  HIS148      0.1154
     71  CE1       57.5910   56.0060  -37.3210 C.ar  148  HIS148      0.1986
     72  NE2       56.8660   54.9070  -37.2460 N.ar  148  HIS148     -0.2212
     73  N         60.5310   59.2440  -23.3550 N.3   268  CYS268     -0.1235
     74  CA        59.6830   58.3840  -24.1750 C.3   268  CYS268      0.1677
     75  C         60.5920   57.5000  -25.0130 C.2   268  CYS268      0.2270
     76  O         61.3770   58.0070  -25.8020 O.2   268  CYS268     -0.2867
     77  CB        58.7930   59.1990  -25.1160 C.3   268  CYS268      0.0956
     78  SG        57.8200   60.4650  -24.3460 S.3   268  CYS268     -0.0801
     79  N         60.9340   54.3120  -27.6970 N.3   270  ALA270     -0.1245
     80  CA        60.2830   53.3730  -28.6260 C.3   270  ALA270      0.1562
     81  C         60.6230   51.9000  -28.3360 C.2   270  ALA270      0.2260
     82  O         61.7350   51.5780  -27.9430 O.2   270  ALA270     -0.2867
     83  CB        60.5940   53.7520  -30.1030 C.3   270  ALA270      0.0290
     84  N         53.2180   48.1100  -38.6960 N.3   284  LEU284     -0.1245
     85  CA        53.5470   49.0880  -37.6660 C.3   284  LEU284      0.1561
     86  C         53.1030   48.4350  -36.3500 C.2   284  LEU284      0.2260
     87  O         51.9010   48.3260  -36.0760 O.2   284  LEU284     -0.2867
     88  CB        52.8100   50.4190  -37.9310 C.3   284  LEU284      0.0270
     89  CG        53.3940   51.7810  -37.4600 C.3   284  LEU284      0.0019
     90  CD1       52.2560   52.6280  -37.0110 C.3   284  LEU284      0.0001
     91  CD2       54.3550   51.7230  -36.3110 C.3   284  LEU284      0.0001
     92  N         54.5590   48.7470  -32.5970 N.3   286  GLN286     -0.1231
     93  CA        55.5040   49.5190  -31.8360 C.3   286  GLN286      0.1698
     94  C         54.7080   50.2330  -30.7750 C.2   286  GLN286      0.2592
     95  O         53.5920   50.6900  -31.0390 O.2   286  GLN286     -0.2718
     96  CB        56.0800   50.5770  -32.7690 C.3   286  GLN286      0.0381
     97  CG        57.2620   51.3830  -32.2430 C.3   286  GLN286      0.0905
     98  CD        57.8080   52.2940  -33.3230 C.2   286  GLN286      0.2608
     99  OE1       59.0080   52.1890  -33.6150 O.2   286  GLN286     -0.2717
    100  NE2       57.0180   53.0480  -33.9380 N.am  286  GLN286     -0.0878
    101  N         55.2880   50.3690  -29.5870 N.am  287  ASN287     -0.1974
    102  CA        54.7220   51.2370  -28.5640 C.3   287  ASN287      0.1688
    103  C         55.8660   52.1040  -28.0180 C.2   287  ASN287      0.2292
    104  O         56.9080   52.2440  -28.6610 O.2   287  ASN287     -0.2864
    105  CB        54.0480   50.3910  -27.4450 C.3   287  ASN287      0.1181
    106  CG        52.9730   51.1590  -26.6670 C.2   287  ASN287      0.2629
    107  OD1       52.9590   52.3740  -26.6450 O.2   287  ASN287     -0.2716
    108  ND2       52.0670   50.4300  -26.0270 N.am  287  ASN287     -0.0877
    109  N         48.2340   60.1290  -29.7200 N.3   338  SER338     -0.1202
    110  CA        49.6270   60.3660  -30.1010 C.3   338  SER338      0.2020
    111  C         50.5590   59.7550  -29.0580 C.2   338  SER338      0.2619
    112  O         50.4440   60.0440  -27.8680 O.2   338  SER338     -0.2717
    113  CB        49.9240   61.8630  -30.2420 C.3   338  SER338      0.2103
    114  OG        51.3070   62.0600  -30.5190 O.3   338  SER338     -0.2182
    115  N         51.4890   58.9200  -29.5090 N.am  339  LEU339     -0.1965
    116  CA        52.4060   58.2240  -28.5990 C.3   339  LEU339      0.1728
    117  C         53.3970   59.1580  -27.8740 C.2   339  LEU339      0.2616
    118  O         54.0480   58.7630  -26.9090 O.2   339  LEU339     -0.2715
    119  CB        53.1170   57.0860  -29.3410 C.3   339  LEU339      0.0311
    120  CG        52.2710   55.8400  -29.6910 C.3   339  LEU339      0.0022
    121  CD1       52.6960   54.6520  -28.9130 C.3   339  LEU339      0.0001
    122  CD2       50.7470   56.0590  -29.4840 C.3   339  LEU339      0.0001
    123  N         53.4870   60.4020  -28.3300 N.am  340  THR340     -0.1951
    124  CA        54.2690   61.4200  -27.6240 C.3   340  THR340      0.1897
    125  C         53.3700   62.5290  -27.0550 C.2   340  THR340      0.2313
    126  O         53.8200   63.6610  -26.8800 O.2   340  THR340     -0.2863
    127  CB        55.3280   62.0560  -28.5460 C.3   340  THR340      0.1794
    128  OG1       54.6620   62.7070  -29.6300 O.3   340  THR340     -0.2208
    129  CG2       56.2430   60.9960  -29.0990 C.3   340  THR340      0.0378
    130  N         63.1820   59.1050  -27.8560 N.3   348  LEU348     -0.1231
    131  CA        64.2450   58.3410  -28.4820 C.3   348  LEU348      0.1693
    132  C         63.7480   57.0620  -29.1620 C.2   348  LEU348      0.2592
    133  O         62.9700   56.3070  -28.5810 O.2   348  LEU348     -0.2718
    134  CB        65.3410   57.9830  -27.4290 C.3   348  LEU348      0.0284
    135  CG        66.3700   56.9070  -27.8130 C.3   348  LEU348      0.0019
    136  CD1       67.4910   57.4780  -28.6600 C.3   348  LEU348      0.0001
    137  CD2       66.9410   56.2190  -26.5870 C.3   348  LEU348      0.0001
    138  N         64.2460   56.7900  -30.3630 N.am  349  SER349     -0.1952
    139  CA        63.9710   55.5170  -31.0110 C.3   349  SER349      0.1924
    140  C         65.2740   54.8140  -31.3440 C.2   349  SER349      0.2314
    141  O         66.0760   55.3010  -32.1340 O.2   349  SER349     -0.2863
    142  CB        63.1190   55.7120  -32.2780 C.3   349  SER349      0.2116
    143  OG        63.0190   54.4960  -33.0030 O.3   349  SER349     -0.2180
    144  N         67.2830   52.2400  -33.2810 N.3   351  TRP351     -0.1241
    145  CA        67.3250   51.3830  -34.4710 C.3   351  TRP351      0.1605
    146  C         68.4530   50.3660  -34.3500 C.2   351  TRP351      0.2264
    147  O         68.7610   49.6800  -35.3110 O.2   351  TRP351     -0.2867
    148  CB        67.5560   52.2160  -35.7540 C.3   351  TRP351      0.0550
    149  CG        66.3930   53.0990  -36.0680 C.ar  351  TRP351      0.0003
    150  CD1       65.2790   53.2980  -35.2840 C.ar  351  TRP351      0.0946
    151  CD2       66.2090   53.8940  -37.2340 C.ar  351  TRP351      0.0152
    152  NE1       64.4200   54.1770  -35.8960 N.ar  351  TRP351     -0.2442
    153  CE2       64.9590   54.5520  -37.0980 C.ar  351  TRP351      0.0810
    154  CE3       66.9720   54.1150  -38.3880 C.ar  351  TRP351      0.0012
    155  CZ2       64.4600   55.4380  -38.0670 C.ar  351  TRP351      0.0191
    156  CZ3       66.4640   54.9820  -39.3680 C.ar  351  TRP351      0.0001
    157  CH2       65.2230   55.6450  -39.1880 C.ar  351  TRP351      0.0015
    158  N         66.6360   65.7510  -41.4920 N.3   376  PHE376     -0.1241
    159  CA        65.4560   66.5710  -41.8400 C.3   376  PHE376      0.1605
    160  C         65.4420   67.8240  -40.9970 C.2   376  PHE376      0.2264
    161  O         66.4730   68.1710  -40.4260 O.2   376  PHE376     -0.2867
    162  CB        64.1150   65.7870  -41.7820 C.3   376  PHE376      0.0534
    163  CG        63.8530   65.0590  -40.4760 C.ar  376  PHE376     -0.0203
    164  CD1       62.9080   65.5530  -39.5620 C.ar  376  PHE376     -0.0042
    165  CD2       64.4920   63.8550  -40.1950 C.ar  376  PHE376     -0.0042
    166  CE1       62.6600   64.8890  -38.3780 C.ar  376  PHE376     -0.0003
    167  CE2       64.2350   63.1610  -39.0430 C.ar  376  PHE376     -0.0003
    168  CZ        63.3050   63.6780  -38.1150 C.ar  376  PHE376     -0.0000
    169  N         64.2790   69.0180  -34.7720 N.3   379  PHE379     -0.1241
    170  CA        63.1350   68.5930  -34.0270 C.3   379  PHE379      0.1605
    171  C         63.6040   68.4230  -32.5940 C.2   379  PHE379      0.2264
    172  O         64.0180   67.3390  -32.1950 O.2   379  PHE379     -0.2867
    173  CB        62.6910   67.2580  -34.6000 C.3   379  PHE379      0.0534
    174  CG        61.2360   66.9720  -34.4470 C.ar  379  PHE379     -0.0203
    175  CD1       60.4110   66.9410  -35.5730 C.ar  379  PHE379     -0.0042
    176  CD2       60.6960   66.6520  -33.2050 C.ar  379  PHE379     -0.0042
    177  CE1       59.0500   66.6320  -35.4500 C.ar  379  PHE379     -0.0003
    178  CE2       59.3400   66.3480  -33.0590 C.ar  379  PHE379     -0.0003
    179  CZ        58.5090   66.3310  -34.1940 C.ar  379  PHE379     -0.0000
    180  N         64.0350   65.0830  -30.2220 N.3   382  LEU382     -0.1245
    181  CA        63.9740   63.8120  -30.9680 C.3   382  LEU382      0.1561
    182  C         65.3660   63.1760  -31.1550 C.2   382  LEU382      0.2260
    183  O         66.3160   63.8370  -31.5530 O.2   382  LEU382     -0.2867
    184  CB        63.2810   64.0170  -32.3230 C.3   382  LEU382      0.0270
    185  CG        62.9090   62.7900  -33.1550 C.3   382  LEU382      0.0019
    186  CD1       61.8720   61.9020  -32.4900 C.3   382  LEU382      0.0001
    187  CD2       62.4060   63.2620  -34.5240 C.3   382  LEU382      0.0001
    188  N         67.6700   59.3470  -32.1860 N.3   383  TYR383     -0.1241
    189  CA        67.7390   57.9510  -32.6550 C.3   383  TYR383      0.1605
    190  C         69.0590   57.2980  -32.3050 C.2   383  TYR383      0.2264
    191  O         70.0740   58.0030  -32.1750 O.2   383  TYR383     -0.2867
    192  CB        67.6180   57.8650  -34.1840 C.3   383  TYR383      0.0534
    193  CG        66.3810   58.4950  -34.7370 C.ar  383  TYR383     -0.0201
    194  CD1       65.2410   57.7400  -34.9520 C.ar  383  TYR383     -0.0009
    195  CD2       66.3520   59.8600  -35.0560 C.ar  383  TYR383     -0.0009
    196  CE1       64.0910   58.3290  -35.4540 C.ar  383  TYR383      0.0417
    197  CE2       65.2170   60.4470  -35.5580 C.ar  383  TYR383      0.0417
    198  CZ        64.0920   59.6800  -35.7590 C.ar  383  TYR383      0.1957
    199  OH        62.9570   60.2580  -36.2640 O.3   383  TYR383     -0.2866
@<TRIPOS>BOND
     1    58    57    2
     2    48    49    1
     3    44    43    2
     4    57    56    1
     5    49    50    1
     6    49    52    1
     7    43    42    1
     8    55    50   am
     9    55    56    1
    10    50    51    2
    11    36    35    2
    12    41    42    1
    13    56    59    1
    14    53    52    1
    15    35    34    1
    16    63    64    1
    17    52    54    1
    18    42    45    1
    19    33    34    1
    20    34    37    1
    21   159   162    1
    22   159   158    1
    23   159   160    1
    24    59    60    1
    25   162   163    1
    26    45    47    1
    27    45    46    1
    28    64    65    1
    29    64    67    1
    30    28    27    2
    31   160   161    2
    32    65    66    2
    33    60    61    1
    34    60    62    1
    35   163   165   ar
    36   163   164   ar
    37    27    26    1
    38    37    39    1
    39    37    38    1
    40    67    68    1
    41   165   167   ar
    42   164   166   ar
    43    38    40    1
    44   156   157   ar
    45   156   154   ar
    46   157   155   ar
    47    68    69   ar
    48    68    70   ar
    49   167   168   ar
    50    21    20    2
    51    26    29    1
    52    26    25    1
    53    84    85    1
    54    69    71   ar
    55   154   151   ar
    56   166   168   ar
    57    29    30    1
    58    70    72   ar
    59    25    20   am
    60    20    19    1
    61   155   153   ar
    62    88    85    1
    63    88    89    1
    64    12    11    2
    65    85    86    1
    66    89    90    1
    67    89    91    1
    68    71    72   ar
    69   151   153   ar
    70   151   149   ar
    71   153   152   ar
    72    19    18    1
    73    19    22    1
    74    30    31    1
    75    30    32    1
    76    11    10    1
    77    18    24    1
    78    86    87    2
    79     9    10    1
    80   199   198    1
    81   149   148    1
    82   149   150   ar
    83   152   150   ar
    84   198   197   ar
    85   198   196   ar
    86   148   145    1
    87    10    13    1
    88    22    23    1
    89   175   177   ar
    90   175   174   ar
    91   197   195   ar
    92   196   194   ar
    93   177   179   ar
    94    24    23    1
    95   147   146    2
    96     3     4    2
    97     3     2    1
    98   195   193   ar
    99   194   193   ar
   100    13    14    1
   101   169   170    1
   102   193   192    1
   103     1     2    1
   104   173   174    1
   105   173   170    1
   106   187   185    1
   107   145   146    1
   108   145   144    1
   109   174   176   ar
   110   179   178   ar
   111   192   189    1
   112     2     5    1
   113   170   171    1
   114   100    98   am
   115    14    15    1
   116    99    98    2
   117    98    97    1
   118     5     7    1
   119     5     6    1
   120   176   178   ar
   121   185   186    1
   122   185   184    1
   123    15    17   am
   124    15    16    2
   125   143   142    1
   126    96    97    1
   127    96    93    1
   128   189   190    1
   129   189   188    1
   130    92    93    1
   131   171   172    2
   132   184   181    1
   133   190   191    2
   134   142   139    1
   135   141   140    2
   136     6     8    1
   137    93    94    1
   138   183   182    2
   139   140   139    1
   140   182   181    1
   141    95    94    2
   142   139   138    1
   143   181   180    1
   144    94   101   am
   145   114   113    1
   146   138   132   am
   147   113   110    1
   148    83    80    1
   149   110   109    1
   150   110   111    1
   151   120   122    1
   152   120   119    1
   153   120   121    1
   154   128   127    1
   155   101   102    1
   156   115   111   am
   157   115   116    1
   158   119   116    1
   159   132   133    2
   160   132   131    1
   161   129   127    1
   162   111   112    2
   163   104   103    2
   164   136   135    1
   165    80    81    1
   166    80    79    1
   167   116   117    1
   168   102   103    1
   169   102   105    1
   170   127   124    1
   171   131   130    1
   172   131   134    1
   173    81    82    2
   174   123   117   am
   175   123   124    1
   176   117   118    2
   177   135   134    1
   178   135   137    1
   179   124   125    1
   180   105   106    1
   181   125   126    2
   182   106   107    2
   183   106   108   am
   184    76    75    2
   185    77    78    1
   186    77    74    1
   187    75    74    1
   188    74    73    1
