@<TRIPOS>MOLECULE
tmp/2zbbB00.pdb
 112 108 0 0 0
SMALL
GASTEIGER

@<TRIPOS>ATOM
      1  N         -6.8010   18.6890  -24.1400 N.3    71  TYR71      -0.1241
      2  CA        -6.0710   19.7290  -24.8350 C.3    71  TYR71       0.1605
      3  C         -6.9540   20.8600  -25.2350 C.2    71  TYR71       0.2264
      4  O         -8.1980   20.7130  -25.2650 O.2    71  TYR71      -0.2867
      5  CB        -5.2010   19.1980  -26.0050 C.3    71  TYR71       0.0534
      6  CG        -5.9280   18.3270  -27.0280 C.ar   71  TYR71      -0.0201
      7  CD1       -6.1410   18.8010  -28.3340 C.ar   71  TYR71      -0.0009
      8  CD2       -6.3940   17.0330  -26.7020 C.ar   71  TYR71      -0.0009
      9  CE1       -6.7880   18.0160  -29.2980 C.ar   71  TYR71       0.0417
     10  CE2       -7.0530   16.2430  -27.6460 C.ar   71  TYR71       0.0417
     11  CZ        -7.2600   16.7370  -28.9340 C.ar   71  TYR71       0.1957
     12  OH        -7.8730   15.9810  -29.9000 O.3    71  TYR71      -0.2866
     13  N          0.5320   17.4460  -28.5390 N.3    91  PHE91      -0.1241
     14  CA        -0.3820   18.0830  -29.4990 C.3    91  PHE91       0.1605
     15  C         -0.2030   19.6100  -29.6440 C.2    91  PHE91       0.2264
     16  O         -0.8620   20.2140  -30.4800 O.2    91  PHE91      -0.2867
     17  CB        -1.8480   17.7890  -29.1770 C.3    91  PHE91       0.0534
     18  CG        -2.2660   16.3150  -29.3340 C.ar   91  PHE91      -0.0203
     19  CD1       -1.3380   15.3060  -29.7090 C.ar   91  PHE91      -0.0042
     20  CD2       -3.5850   15.9230  -29.0290 C.ar   91  PHE91      -0.0042
     21  CE1       -1.7320   13.9580  -29.8260 C.ar   91  PHE91      -0.0003
     22  CE2       -3.9870   14.5690  -29.1320 C.ar   91  PHE91      -0.0003
     23  CZ        -3.0610   13.5910  -29.5170 C.ar   91  PHE91      -0.0000
     24  N         -6.0910   21.5100  -36.0670 N.3    96  TYR96      -0.1241
     25  CA        -7.1960   20.5820  -36.0450 C.3    96  TYR96       0.1605
     26  C         -8.4620   21.2710  -36.5460 C.2    96  TYR96       0.2264
     27  O         -9.5940   20.9230  -36.1870 O.2    96  TYR96      -0.2867
     28  CB        -7.4450   20.0940  -34.6170 C.3    96  TYR96       0.0534
     29  CG        -6.3270   19.3040  -33.9840 C.ar   96  TYR96      -0.0201
     30  CD1       -5.9380   18.0620  -34.4970 C.ar   96  TYR96      -0.0009
     31  CD2       -5.6540   19.7930  -32.8470 C.ar   96  TYR96      -0.0009
     32  CE1       -4.9220   17.2960  -33.8830 C.ar   96  TYR96       0.0417
     33  CE2       -4.6290   19.0340  -32.2290 C.ar   96  TYR96       0.0417
     34  CZ        -4.2670   17.7960  -32.7680 C.ar   96  TYR96       0.1957
     35  OH        -3.2460   17.0640  -32.1810 O.3    96  TYR96      -0.2866
     36  N        -11.1600   18.9230  -37.8040 N.3    99  ARG99      -0.1245
     37  CA       -11.5900   17.7070  -37.1250 C.3    99  ARG99       0.1563
     38  C        -13.0180   17.8890  -36.7320 C.2    99  ARG99       0.2260
     39  O        -13.3900   18.9600  -36.2290 O.2    99  ARG99      -0.2867
     40  CB       -10.7510   17.4560  -35.8850 C.3    99  ARG99       0.0307
     41  CG        -9.3100   17.2960  -36.2470 C.3    99  ARG99       0.0489
     42  CD        -9.0610   15.9030  -36.8180 C.3    99  ARG99       0.2205
     43  NE        -7.6560   15.6670  -36.6330 N.pl3  99  ARG99      -0.0865
     44  CZ        -6.7270   15.9760  -37.5380 C.cat  99  ARG99       0.5346
     45  NH1       -7.0650   16.4540  -38.7110 N.pl3  99  ARG99       0.1354
     46  NH2       -5.4650   15.7830  -37.2640 N.pl3  99  ARG99       0.1354
     47  N        -14.5680   16.7030  -34.0980 N.3   101  TYR101     -0.1241
     48  CA       -14.6980   17.1740  -32.6850 C.3   101  TYR101      0.1605
     49  C        -14.5520   18.6890  -32.5110 C.2   101  TYR101      0.2264
     50  O        -15.3300   19.2820  -31.7160 O.2   101  TYR101     -0.2867
     51  CB       -13.8230   16.4070  -31.6640 C.3   101  TYR101      0.0534
     52  CG       -12.3520   16.3540  -31.9420 C.ar  101  TYR101     -0.0201
     53  CD1      -11.4900   17.3430  -31.4440 C.ar  101  TYR101     -0.0009
     54  CD2      -11.7900   15.3100  -32.6670 C.ar  101  TYR101     -0.0009
     55  CE1      -10.1370   17.3020  -31.6720 C.ar  101  TYR101      0.0417
     56  CE2      -10.4050   15.2680  -32.9020 C.ar  101  TYR101      0.0417
     57  CZ        -9.6050   16.2700  -32.3930 C.ar  101  TYR101      0.1957
     58  OH        -8.2390   16.2410  -32.5680 O.3   101  TYR101     -0.2866
     59  N         -6.8790    7.9240  -33.4310 N.3   117  GLY117     -0.1210
     60  CA        -5.8210    8.9230  -33.3070 C.3   117  GLY117      0.1956
     61  C         -5.0310    9.0770  -34.5870 C.2   117  GLY117      0.2613
     62  O         -4.7030    8.0680  -35.2240 O.2   117  GLY117     -0.2717
     63  N         -4.7180   10.3160  -34.9780 N.am  118  THR118     -0.1938
     64  CA        -4.0730   10.5700  -36.2870 C.3   118  THR118      0.2028
     65  C         -2.7110    9.8680  -36.3410 C.2   118  THR118      0.2642
     66  O         -2.4060    9.1680  -37.2790 O.2   118  THR118     -0.2714
     67  CB        -3.9420   12.1250  -36.5770 C.3   118  THR118      0.1808
     68  OG1       -5.2420   12.7070  -36.7160 O.3   118  THR118     -0.2208
     69  CG2       -3.1430   12.4610  -37.8250 C.3   118  THR118      0.0379
     70  N         -1.9200   10.0290  -35.2920 N.am  119  VAL119     -0.1963
     71  CA        -0.5480    9.5760  -35.2740 C.3   119  VAL119      0.1727
     72  C         -0.4310    8.3180  -34.4420 C.2   119  VAL119      0.2616
     73  O          0.3410    7.4510  -34.7520 O.2   119  VAL119     -0.2715
     74  CB         0.3930   10.7160  -34.7910 C.3   119  VAL119      0.0290
     75  CG1        1.8360   10.2210  -34.5720 C.3   119  VAL119      0.0023
     76  CG2        0.3740   11.8800  -35.8280 C.3   119  VAL119      0.0023
     77  N         -1.2700    8.2160  -33.4380 N.am  120  SER120     -0.1950
     78  CA        -1.2750    7.1460  -32.4520 C.3   120  SER120      0.1924
     79  C         -1.9100    5.8160  -32.9130 C.2   120  SER120      0.2314
     80  O         -1.4720    4.7240  -32.4860 O.2   120  SER120     -0.2863
     81  CB        -2.0950    7.6380  -31.2420 C.3   120  SER120      0.2116
     82  OG        -3.4520    7.3370  -31.4490 O.3   120  SER120     -0.2180
     83  N        -13.6640   11.3960  -28.4930 N.3   126  TYR126     -0.1241
     84  CA       -13.1960   12.7810  -28.3070 C.3   126  TYR126      0.1605
     85  C        -14.4170   13.5690  -27.8010 C.2   126  TYR126      0.2264
     86  O        -15.5070   13.6270  -28.4680 O.2   126  TYR126     -0.2867
     87  CB       -12.7020   13.3490  -29.6520 C.3   126  TYR126      0.0534
     88  CG       -11.4410   12.7030  -30.1460 C.ar  126  TYR126     -0.0201
     89  CD1      -10.2020   13.3490  -29.9900 C.ar  126  TYR126     -0.0009
     90  CD2      -11.4650   11.4330  -30.7190 C.ar  126  TYR126     -0.0009
     91  CE1       -8.9900   12.7340  -30.4240 C.ar  126  TYR126      0.0417
     92  CE2      -10.2800   10.7900  -31.1260 C.ar  126  TYR126      0.0417
     93  CZ        -9.0440   11.4320  -30.9710 C.ar  126  TYR126      0.1957
     94  OH        -7.8780   10.8140  -31.4230 O.3   126  TYR126     -0.2866
     95  N         -9.9020   13.2920  -24.7430 N.3   144  LYS144     -0.1245
     96  CA        -9.9860   11.9750  -25.3820 C.3   144  LYS144      0.1561
     97  C         -9.8910   10.8060  -24.3820 C.2   144  LYS144      0.2260
     98  O         -8.9400   10.6990  -23.5510 O.2   144  LYS144     -0.2867
     99  CB        -8.9160   11.8740  -26.4530 C.3   144  LYS144      0.0271
    100  CG        -9.0690   10.6970  -27.3880 C.3   144  LYS144      0.0035
    101  CD        -7.7710    9.8460  -27.6280 C.3   144  LYS144      0.0206
    102  CE        -8.0870    8.8310  -28.7830 C.3   144  LYS144      0.1093
    103  NZ        -7.0690    7.8100  -29.1170 N.3   144  LYS144     -0.1314
    104  N        -12.0100    8.8150  -39.2420 N.3   199  GLN199     -0.1245
    105  CA       -10.6240    9.2370  -39.2900 C.3   199  GLN199      0.1566
    106  C         -9.7030    8.0450  -39.4590 C.2   199  GLN199      0.2260
    107  O         -8.6060    8.0250  -38.9130 O.2   199  GLN199     -0.2867
    108  CB       -10.2390    9.9620  -38.0040 C.3   199  GLN199      0.0367
    109  CG       -10.7920   11.3640  -37.8320 C.3   199  GLN199      0.0905
    110  CD       -10.1340   12.0960  -36.6810 C.2   199  GLN199      0.2608
    111  OE1      -10.5600   13.1700  -36.2850 O.2   199  GLN199     -0.2717
    112  NE2       -9.0910   11.5110  -36.1420 N.am  199  GLN199     -0.0878
@<TRIPOS>BOND
     1   106   105    1
     2   106   107    2
     3   105   104    1
     4   105   108    1
     5    45    44    1
     6   108   109    1
     7   109   110    1
     8    69    67    1
     9    36    37    1
    10    44    46    1
    11    44    43    2
    12    66    65    2
    13    37    38    1
    14    37    40    1
    15    42    43    1
    16    42    41    1
    17    38    39    2
    18    68    67    1
    19   110   111    2
    20   110   112   am
    21    67    64    1
    22    26    27    2
    23    26    25    1
    24    65    64    1
    25    65    70   am
    26    64    63    1
    27    41    40    1
    28    24    25    1
    29    25    28    1
    30    76    74    1
    31    70    71    1
    32    71    74    1
    33    71    72    1
    34    62    61    2
    35    63    61   am
    36    74    75    1
    37    73    72    2
    38    28    29    1
    39    61    60    1
    40    30    29   ar
    41    30    32   ar
    42    72    77   am
    43    47    48    1
    44    29    31   ar
    45    32    34   ar
    46    77    78    1
    47    59    60    1
    48    79    80    2
    49    79    78    1
    50    56    54   ar
    51    56    57   ar
    52    31    33   ar
    53    34    33   ar
    54    34    35    1
    55    48    49    1
    56    48    51    1
    57    54    52   ar
    58    58    57    1
    59    49    50    2
    60    78    81    1
    61    57    55   ar
    62    52    51    1
    63    52    53   ar
    64    55    53   ar
    65    82    81    1
    66    94    93    1
    67    92    93   ar
    68    92    90   ar
    69    93    91   ar
    70    90    88   ar
    71    16    15    2
    72    91    89   ar
    73    88    89   ar
    74    88    87    1
    75    12    11    1
    76    21    19   ar
    77    21    23   ar
    78    19    18   ar
    79    87    84    1
    80    15    14    1
    81    23    22   ar
    82    14    17    1
    83    14    13    1
    84    18    17    1
    85    18    20   ar
    86     9    11   ar
    87     9     7   ar
    88    22    20   ar
    89   103   102    1
    90    11    10   ar
    91   102   101    1
    92    83    84    1
    93    86    85    2
    94     7     6   ar
    95    84    85    1
    96    10     8   ar
    97   101   100    1
    98   100    99    1
    99     6     8   ar
   100     6     5    1
   101    99    96    1
   102     5     2    1
   103    96    95    1
   104    96    97    1
   105     4     3    2
   106     3     2    1
   107     2     1    1
   108    97    98    2
