@<TRIPOS>MOLECULE
tmp/2zbdA02.pdb
 84 83 0 0 0
SMALL
GASTEIGER

@<TRIPOS>ATOM
      1  N         48.7840   24.2680    8.8780 N.3   263  VAL263     -0.1245
      2  CA        48.3820   25.4750    8.1460 C.3   263  VAL263      0.1561
      3  C         49.0010   25.5100    6.7460 C.2   263  VAL263      0.2260
      4  O         48.3110   25.7990    5.7670 O.2   263  VAL263     -0.2867
      5  CB        48.7230   26.7700    8.9400 C.3   263  VAL263      0.0252
      6  CG1       48.6180   28.0110    8.0580 C.3   263  VAL263      0.0019
      7  CG2       47.8120   26.9050   10.1530 C.3   263  VAL263      0.0019
      8  N         47.0360   25.2190    2.9620 N.3   267  ILE267     -0.1245
      9  CA        47.2590   26.1510    1.8500 C.3   267  ILE267      0.1561
     10  C         48.1730   25.5450    0.7790 C.2   267  ILE267      0.2260
     11  O         48.5210   26.2060   -0.2000 O.2   267  ILE267     -0.2867
     12  CB        47.7830   27.5400    2.3230 C.3   267  ILE267      0.0252
     13  CG1       49.1280   27.4080    3.0490 C.3   267  ILE267      0.0019
     14  CG2       46.7270   28.2450    3.1850 C.3   267  ILE267      0.0019
     15  CD1       49.7580   28.7290    3.4660 C.3   267  ILE267      0.0001
     16  N         51.7710   35.1280   25.1980 N.3   827  PRO827     -0.2116
     17  CA        51.7830   34.1550   24.1040 C.3   827  PRO827      0.1372
     18  C         53.0200   34.2980   23.2250 C.2   827  PRO827      0.2244
     19  O         53.6600   35.3530   23.2290 O.2   827  PRO827     -0.2868
     20  CB        50.5260   34.5140   23.3090 C.3   827  PRO827      0.0268
     21  CG        50.3350   35.9640   23.5530 C.3   827  PRO827      0.0207
     22  CD        50.7730   36.1920   24.9710 C.3   827  PRO827      0.0892
     23  N         53.4170   34.4590   19.8370 N.3   829  ILE829     -0.1231
     24  CA        53.2700   35.5180   18.8420 C.3   829  ILE829      0.1692
     25  C         52.2040   36.5260   19.2700 C.2   829  ILE829      0.2593
     26  O         51.0440   36.1680   19.4920 O.2   829  ILE829     -0.2718
     27  CB        52.9610   34.9540   17.4310 C.3   829  ILE829      0.0266
     28  CG1       54.1290   34.0940   16.9380 C.3   829  ILE829      0.0019
     29  CG2       52.6650   36.0900   16.4440 C.3   829  ILE829      0.0020
     30  CD1       53.8630   33.3650   15.6390 C.3   829  ILE829      0.0001
     31  N         52.6260   37.7840   19.3900 N.am  830  SER830     -0.1938
     32  CA        51.7390   38.9010   19.7070 C.3   830  SER830      0.2055
     33  C         50.7780   39.1770   18.5520 C.2   830  SER830      0.2644
     34  O         51.1200   38.9670   17.3860 O.2   830  SER830     -0.2714
     35  CB        52.5670   40.1540   20.0180 C.3   830  SER830      0.2130
     36  OG        51.7420   41.2660   20.3180 O.3   830  SER830     -0.2179
     37  N         49.5760   39.6400   18.8870 N.am  831  GLY831     -0.1939
     38  CA        48.5700   39.9980   17.8860 C.3   831  GLY831      0.2014
     39  C         49.0730   41.0620   16.9310 C.2   831  GLY831      0.2638
     40  O         48.8390   40.9820   15.7250 O.2   831  GLY831     -0.2714
     41  N         49.7700   42.0540   17.4810 N.am  832  TRP832     -0.1973
     42  CA        50.4360   43.0910   16.6950 C.3   832  TRP832      0.1640
     43  C         51.5140   42.5020   15.7860 C.2   832  TRP832      0.2290
     44  O         51.6830   42.9370   14.6460 O.2   832  TRP832     -0.2864
     45  CB        51.0480   44.1490   17.6220 C.3   832  TRP832      0.0576
     46  CG        52.2110   44.8870   17.0140 C.ar  832  TRP832      0.0006
     47  CD1       53.5360   44.6930   17.2850 C.ar  832  TRP832      0.0946
     48  CD2       52.1510   45.9190   16.0220 C.ar  832  TRP832      0.0152
     49  NE1       54.3040   45.5450   16.5290 N.ar  832  TRP832     -0.2442
     50  CE2       53.4800   46.3090   15.7460 C.ar  832  TRP832      0.0810
     51  CE3       51.1030   46.5560   15.3450 C.ar  832  TRP832      0.0012
     52  CZ2       53.7900   47.3090   14.8200 C.ar  832  TRP832      0.0191
     53  CZ3       51.4120   47.5500   14.4250 C.ar  832  TRP832      0.0001
     54  CH2       52.7460   47.9150   14.1720 C.ar  832  TRP832      0.0015
     55  N         51.7130   39.3670   14.6420 N.3   834  PHE834     -0.1227
     56  CA        51.1180   38.5480   13.5840 C.3   834  PHE834      0.1736
     57  C         50.6190   39.4060   12.4160 C.2   834  PHE834      0.2595
     58  O         50.5940   38.9470   11.2720 O.2   834  PHE834     -0.2718
     59  CB        49.9960   37.6530   14.1300 C.3   834  PHE834      0.0547
     60  CG        49.4580   36.6720   13.1210 C.ar  834  PHE834     -0.0202
     61  CD1       50.2080   35.5600   12.7380 C.ar  834  PHE834     -0.0042
     62  CD2       48.2030   36.8620   12.5470 C.ar  834  PHE834     -0.0042
     63  CE1       49.7160   34.6520   11.7970 C.ar  834  PHE834     -0.0003
     64  CE2       47.7000   35.9600   11.6050 C.ar  834  PHE834     -0.0003
     65  CZ        48.4580   34.8530   11.2310 C.ar  834  PHE834     -0.0000
     66  N         50.2240   40.6450   12.7120 N.am  835  PHE835     -0.1976
     67  CA        49.9120   41.6270   11.6740 C.3   835  PHE835      0.1639
     68  C         51.1930   42.0660   10.9670 C.2   835  PHE835      0.2290
     69  O         51.2050   42.2500    9.7490 O.2   835  PHE835     -0.2864
     70  CB        49.1810   42.8410   12.2620 C.3   835  PHE835      0.0560
     71  CG        48.9790   43.9670   11.2780 C.ar  835  PHE835     -0.0200
     72  CD1       47.9960   43.8840   10.2930 C.ar  835  PHE835     -0.0042
     73  CD2       49.7720   45.1110   11.3360 C.ar  835  PHE835     -0.0042
     74  CE1       47.8090   44.9210    9.3790 C.ar  835  PHE835     -0.0003
     75  CE2       49.5930   46.1530   10.4280 C.ar  835  PHE835     -0.0003
     76  CZ        48.6090   46.0570    9.4480 C.ar  835  PHE835     -0.0000
     77  N         53.0590   52.4720   20.0170 N.3   992  LEU992     -0.1245
     78  CA        52.5390   51.3760   20.8360 C.3   992  LEU992      0.1561
     79  C         53.2000   51.3800   22.2200 C.2   992  LEU992      0.2260
     80  O         52.8240   52.1720   23.0850 O.2   992  LEU992     -0.2867
     81  CB        52.7290   50.0290   20.1250 C.3   992  LEU992      0.0270
     82  CG        51.7870   48.8820   20.5110 C.3   992  LEU992      0.0019
     83  CD1       50.5280   48.9030   19.6510 C.3   992  LEU992      0.0001
     84  CD2       52.4950   47.5410   20.3840 C.3   992  LEU992      0.0001
@<TRIPOS>BOND
     1    11    10    2
     2    10     9    1
     3     9    12    1
     4     9     8    1
     5    12    13    1
     6    12    14    1
     7    13    15    1
     8     4     3    2
     9     3     2    1
    10     6     5    1
    11     2     1    1
    12     2     5    1
    13     5     7    1
    14    74    76   ar
    15    74    72   ar
    16    76    75   ar
    17    69    68    2
    18    72    71   ar
    19    75    73   ar
    20    68    67    1
    21    65    64   ar
    22    65    63   ar
    23    58    57    2
    24    71    73   ar
    25    71    70    1
    26    64    62   ar
    27    67    70    1
    28    67    66    1
    29    63    61   ar
    30    57    66   am
    31    57    56    1
    32    62    60   ar
    33    61    60   ar
    34    60    59    1
    35    56    59    1
    36    56    55    1
    37    54    53   ar
    38    54    52   ar
    39    53    51   ar
    40    44    43    2
    41    52    50   ar
    42    51    48   ar
    43    30    28    1
    44    40    39    2
    45    50    48   ar
    46    50    49   ar
    47    43    42    1
    48    48    46   ar
    49    29    27    1
    50    49    47   ar
    51    42    41    1
    52    42    45    1
    53    39    41   am
    54    39    38    1
    55    28    27    1
    56    46    47   ar
    57    46    45    1
    58    34    33    2
    59    27    24    1
    60    38    37    1
    61    33    37   am
    62    33    32    1
    63    24    25    1
    64    24    23    1
    65    25    31   am
    66    25    26    2
    67    31    32    1
    68    83    82    1
    69    32    35    1
    70    77    78    1
    71    35    36    1
    72    81    82    1
    73    81    78    1
    74    84    82    1
    75    78    79    1
    76    79    80    2
    77    18    19    2
    78    18    17    1
    79    20    21    1
    80    20    17    1
    81    21    22    1
    82    17    16    1
    83    22    16    1
