@<TRIPOS>MOLECULE
tmp/2zbkH00.pdb
 133 125 0 0 0
SMALL
GASTEIGER

@<TRIPOS>ATOM
      1  N          6.4060  -76.5730   10.7270 N.3    26  LEU26      -0.1245
      2  CA         5.0370  -76.9570   11.0360 C.3    26  LEU26       0.1561
      3  C          4.2870  -77.3970    9.8000 C.2    26  LEU26       0.2260
      4  O          3.5720  -78.3910    9.8360 O.2    26  LEU26      -0.2867
      5  CB         4.2880  -75.8020   11.6990 C.3    26  LEU26       0.0270
      6  CG         4.6920  -75.4580   13.1300 C.3    26  LEU26       0.0019
      7  CD1        3.8020  -74.3570   13.6630 C.3    26  LEU26       0.0001
      8  CD2        4.6160  -76.6920   14.0220 C.3    26  LEU26       0.0001
      9  N          5.6170  -80.8350    8.4940 N.3    29  ASN29      -0.1225
     10  CA         5.0130  -81.9260    9.2480 C.3    29  ASN29       0.1785
     11  C          3.5320  -82.1330    8.9750 C.2    29  ASN29       0.2597
     12  O          3.0950  -83.2620    8.7810 O.2    29  ASN29      -0.2718
     13  CB         5.2360  -81.7270   10.7430 C.3    29  ASN29       0.1169
     14  CG         6.6230  -82.1260   11.1750 C.2    29  ASN29       0.2627
     15  OD1        7.2740  -82.9530   10.5340 O.2    29  ASN29      -0.2716
     16  ND2        7.0900  -81.5410   12.2670 N.am   29  ASN29      -0.0877
     17  N          2.7560  -81.0530    8.9630 N.am   30  SER30      -0.1952
     18  CA         1.3040  -81.1770    8.8380 C.3    30  SER30       0.1924
     19  C          0.8650  -81.8560    7.5510 C.2    30  SER30       0.2314
     20  O         -0.0930  -82.6250    7.5450 O.2    30  SER30      -0.2863
     21  CB         0.6060  -79.8280    9.0100 C.3    30  SER30       0.2116
     22  OG         0.2890  -79.5980   10.3780 O.3    30  SER30      -0.2180
     23  N          2.7790  -84.1760    5.7310 N.3    32  ASP32      -0.1225
     24  CA         3.1410  -85.5810    5.9640 C.3    32  ASP32       0.1805
     25  C          2.2230  -86.2870    6.9650 C.2    32  ASP32       0.2597
     26  O          2.4140  -87.4630    7.2710 O.2    32  ASP32      -0.2718
     27  CB         4.6020  -85.7020    6.4250 C.3    32  ASP32       0.1424
     28  CG         5.5960  -85.6990    5.2630 C.2    32  ASP32       0.3668
     29  OD1        5.1780  -85.5320    4.0960 O.co2  32  ASP32      -0.2456
     30  OD2        6.8060  -85.8750    5.5260 O.co2  32  ASP32      -0.2456
     31  N          1.2330  -85.5580    7.4710 N.am   33  ALA33      -0.1979
     32  CA         0.2400  -86.1420    8.3570 C.3    33  ALA33       0.1597
     33  C         -1.1000  -86.2520    7.6420 C.2    33  ALA33       0.2287
     34  O         -2.0980  -86.6610    8.2340 O.2    33  ALA33      -0.2864
     35  CB         0.1120  -85.3140    9.6140 C.3    33  ALA33       0.0319
     36  N         -1.1790  -90.2630    3.9690 N.3    37  HIS37      -0.1241
     37  CA        -2.1540  -91.2370    4.4250 C.3    37  HIS37       0.1621
     38  C         -3.4400  -91.1250    3.5980 C.2    37  HIS37       0.2264
     39  O         -4.4520  -91.7620    3.9070 O.2    37  HIS37      -0.2867
     40  CB        -2.4040  -91.0910    5.9340 C.3    37  HIS37       0.0745
     41  CG        -1.1840  -91.3270    6.7710 C.ar   37  HIS37       0.0817
     42  ND1       -0.8610  -92.5630    7.2880 N.ar   37  HIS37      -0.2268
     43  CD2       -0.1940  -90.4870    7.1680 C.ar   37  HIS37       0.1154
     44  CE1        0.2660  -92.4740    7.9670 C.ar   37  HIS37       0.1986
     45  NE2        0.6890  -91.2260    7.9140 N.ar   37  HIS37      -0.2212
     46  N         -0.5780  -73.7580   13.3210 N.3    61  VAL61      -0.1245
     47  CA        -0.9490  -74.6260   12.2110 C.3    61  VAL61       0.1561
     48  C         -2.1040  -75.5400   12.5900 C.2    61  VAL61       0.2260
     49  O         -2.1010  -76.1510   13.6560 O.2    61  VAL61      -0.2867
     50  CB         0.2380  -75.4720   11.7550 C.3    61  VAL61       0.0252
     51  CG1       -0.2360  -76.7680   11.1470 C.3    61  VAL61       0.0019
     52  CG2        1.0750  -74.6830   10.7760 C.3    61  VAL61       0.0019
     53  N         -4.5990  -78.5810   10.8760 N.3    63  ASP63      -0.1239
     54  CA        -4.8520  -79.4900    9.7600 C.3    63  ASP63       0.1674
     55  C         -6.0990  -80.3470    9.9490 C.2    63  ASP63       0.2266
     56  O         -6.8230  -80.2080   10.9350 O.2    63  ASP63      -0.2867
     57  CB        -3.6310  -80.3880    9.5050 C.3    63  ASP63       0.1410
     58  CG        -3.0230  -80.9300   10.7840 C.2    63  ASP63       0.3668
     59  OD1       -2.5610  -80.1110   11.6070 O.co2  63  ASP63      -0.2456
     60  OD2       -2.9890  -82.1700   10.9510 O.co2  63  ASP63      -0.2456
     61  N         -4.3480  -86.9720   10.5410 N.3    66  ILE66      -0.1231
     62  CA        -4.6490  -88.0280   11.5030 C.3    66  ILE66       0.1692
     63  C         -4.4520  -87.5830   12.9420 C.2    66  ILE66       0.2593
     64  O         -5.4140  -87.5000   13.6990 O.2    66  ILE66      -0.2718
     65  CB        -3.8120  -89.2960   11.2550 C.3    66  ILE66       0.0266
     66  CG1       -2.3150  -88.9730   11.3120 C.3    66  ILE66       0.0019
     67  CG2       -4.1840  -89.9430    9.9200 C.3    66  ILE66       0.0020
     68  CD1       -1.4450  -90.2070   11.4680 C.3    66  ILE66       0.0001
     69  N         -3.2070  -87.3060   13.3210 N.am   67  GLY67      -0.1942
     70  CA        -2.9110  -86.8610   14.6800 C.3    67  GLY67       0.2014
     71  C         -2.1480  -87.8700   15.5170 C.2    67  GLY67       0.2639
     72  O         -1.8990  -88.9940   15.0790 O.2    67  GLY67      -0.2714
     73  N         -1.7810  -87.4670   16.7320 N.am   68  ILE68      -0.1963
     74  CA        -0.9670  -88.3050   17.5990 C.3    68  ILE68       0.1712
     75  C         -1.8200  -89.1850   18.4860 C.2    68  ILE68       0.2458
     76  O         -2.7880  -88.7160   19.0820 O.2    68  ILE68      -0.2730
     77  CB        -0.0640  -87.4720   18.5340 C.3    68  ILE68       0.0289
     78  CG1        0.2590  -86.1110   17.9190 C.3    68  ILE68       0.0022
     79  CG2        1.2000  -88.2500   18.8920 C.3    68  ILE68       0.0023
     80  CD1        0.9260  -85.1550   18.8850 C.3    68  ILE68       0.0001
     81  N         -1.4750  -90.4770   18.5620 N.am   69  PRO69      -0.2727
     82  CA        -1.9620  -91.3130   19.6520 C.3    69  PRO69       0.1402
     83  C         -1.5920  -90.6470   20.9750 C.2    69  PRO69       0.2269
     84  O         -0.4070  -90.5220   21.2840 O.2    69  PRO69      -0.2865
     85  CB        -1.1770  -92.6110   19.4750 C.3    69  PRO69       0.0296
     86  CG        -0.8460  -92.6420   18.0170 C.3    69  PRO69       0.0237
     87  CD        -0.6290  -91.2220   17.6130 C.3    69  PRO69       0.0939
     88  N          7.0340  -86.6520   21.9680 N.3    76  ALA76      -0.1231
     89  CA         7.1390  -86.1210   20.6170 C.3    76  ALA76       0.1694
     90  C          7.6380  -84.6820   20.6630 C.2    76  ALA76       0.2592
     91  O          8.3540  -84.2260   19.7740 O.2    76  ALA76      -0.2718
     92  CB         5.7960  -86.1900   19.9200 C.3    76  ALA76       0.0304
     93  N          7.2620  -83.9770   21.7180 N.am   77  PHE77      -0.1976
     94  CA         7.5850  -82.5690   21.8400 C.3    77  PHE77       0.1639
     95  C          8.7010  -82.3040   22.8560 C.2    77  PHE77       0.2290
     96  O          9.6040  -81.5020   22.5990 O.2    77  PHE77      -0.2864
     97  CB         6.3280  -81.7730   22.2000 C.3    77  PHE77       0.0560
     98  CG         5.3010  -81.7330   21.1040 C.ar   77  PHE77      -0.0200
     99  CD1        5.2620  -80.6660   20.2140 C.ar   77  PHE77      -0.0042
    100  CD2        4.3720  -82.7530   20.9640 C.ar   77  PHE77      -0.0042
    101  CE1        4.3150  -80.6230   19.2000 C.ar   77  PHE77      -0.0003
    102  CE2        3.4260  -82.7170   19.9540 C.ar   77  PHE77      -0.0003
    103  CZ         3.3980  -81.6480   19.0690 C.ar   77  PHE77      -0.0000
    104  N         10.8240  -80.6250   14.6120 N.3    99  VAL99      -0.1231
    105  CA         9.8190  -79.8870   15.3780 C.3    99  VAL99       0.1692
    106  C         10.1960  -79.7130   16.8460 C.2    99  VAL99       0.2591
    107  O          9.6750  -78.8320   17.5240 O.2    99  VAL99      -0.2718
    108  CB         8.4130  -80.5260   15.2410 C.3    99  VAL99       0.0266
    109  CG1        8.4680  -82.0210   15.5340 C.3    99  VAL99       0.0020
    110  CG2        7.3950  -79.8130   16.1250 C.3    99  VAL99       0.0020
    111  N         11.1140  -80.5450   17.3220 N.am  100  LYS100     -0.1980
    112  CA        11.5670  -80.4710   18.7110 C.3   100  LYS100      0.1596
    113  C         12.3290  -79.1780   18.9960 C.2   100  LYS100      0.2287
    114  O         12.1610  -78.5700   20.0550 O.2   100  LYS100     -0.2864
    115  CB        12.4300  -81.6810   19.0760 C.3   100  LYS100      0.0298
    116  CG        11.6840  -83.0210   19.1000 C.3   100  LYS100      0.0038
    117  CD        11.7030  -83.7200   17.7360 C.3   100  LYS100      0.0206
    118  CE        10.9060  -85.0250   17.7450 C.3   100  LYS100      0.1093
    119  NZ        11.3470  -85.9580   18.8180 N.3   100  LYS100     -0.1314
    120  N         -4.7470  -81.9630   14.2150 N.3   157  THR157     -0.1218
    121  CA        -3.6280  -81.6900   15.1110 C.3   157  THR157      0.1862
    122  C         -3.2950  -80.1920   15.1120 C.2   157  THR157      0.2287
    123  O         -2.7200  -79.6660   14.1560 O.2   157  THR157     -0.2866
    124  CB        -2.3710  -82.4870   14.7060 C.3   157  THR157      0.1770
    125  OG1       -2.7260  -83.5510   13.8090 O.3   157  THR157     -0.2211
    126  CG2       -1.6870  -83.0560   15.9350 C.3   157  THR157      0.0375
    127  N         -1.1790  -77.1810   16.5930 N.3   159  VAL159     -0.1245
    128  CA         0.0250  -76.8200   17.3250 C.3   159  VAL159      0.1561
    129  C          0.1360  -75.3050   17.3810 C.2   159  VAL159      0.2260
    130  O         -0.0370  -74.6260   16.3750 O.2   159  VAL159     -0.2867
    131  CB         1.2810  -77.4050   16.6560 C.3   159  VAL159      0.0252
    132  CG1        2.5320  -76.8760   17.3290 C.3   159  VAL159      0.0019
    133  CG2        1.2430  -78.9330   16.6900 C.3   159  VAL159      0.0019
@<TRIPOS>BOND
     1    38    39    2
     2    38    37    1
     3    36    37    1
     4    29    28   ar
     5    37    40    1
     6    28    30   ar
     7    28    27    1
     8    23    24    1
     9    40    41    1
    10    24    27    1
    11    24    25    1
    12    41    43   ar
    13    41    42   ar
    14    25    26    2
    15    25    31   am
    16    43    45   ar
    17    42    44   ar
    18    31    32    1
    19    20    19    2
    20    19    18    1
    21    33    34    2
    22    33    32    1
    23    45    44   ar
    24    32    35    1
    25     9    10    1
    26    12    11    2
    27    18    17    1
    28    18    21    1
    29    17    11   am
    30    11    10    1
    31    21    22    1
    32    10    13    1
    33    57    54    1
    34    57    58    1
    35    54    55    1
    36    54    53    1
    37     3     4    2
    38     3     2    1
    39    67    65    1
    40    55    56    2
    41    15    14    2
    42    61    62    1
    43     1     2    1
    44    13    14    1
    45    52    50    1
    46    58    60   ar
    47    58    59   ar
    48     2     5    1
    49    51    50    1
    50    14    16   am
    51    65    66    1
    52    65    62    1
    53    66    68    1
    54    62    63    1
    55     5     6    1
    56    50    47    1
    57    47    48    1
    58    47    46    1
    59    48    49    2
    60    63    69   am
    61    63    64    2
    62     6     7    1
    63     6     8    1
    64    69    70    1
    65   125   124    1
    66   123   122    2
    67   120   121    1
    68   104   105    1
    69    70    71    1
    70   124   121    1
    71   124   126    1
    72    72    71    2
    73   121   122    1
    74   108   105    1
    75   108   109    1
    76   108   110    1
    77   105   106    1
    78    71    73   am
    79   130   129    2
    80   127   128    1
    81   131   133    1
    82   131   128    1
    83   131   132    1
    84    73    74    1
    85   106   111   am
    86   106   107    2
    87   111   112    1
    88   128   129    1
    89    74    75    1
    90    74    77    1
    91    87    86    1
    92    87    81    1
    93   117   118    1
    94   117   116    1
    95   118   119    1
    96    78    77    1
    97    78    80    1
    98    86    85    1
    99    75    81   am
   100    75    76    2
   101    77    79    1
   102    81    82    1
   103   112   113    1
   104   112   115    1
   105   113   114    2
   106   103   101   ar
   107   103   102   ar
   108   115   116    1
   109   101    99   ar
   110    85    82    1
   111    82    83    1
   112    91    90    2
   113    92    89    1
   114   102   100   ar
   115    99    98   ar
   116    89    90    1
   117    89    88    1
   118    90    93   am
   119   100    98   ar
   120    83    84    2
   121    98    97    1
   122    93    94    1
   123    94    97    1
   124    94    95    1
   125    96    95    2
