@<TRIPOS>MOLECULE
tmp/2zblB00.pdb
 191 186 0 0 0
SMALL
GASTEIGER

@<TRIPOS>ATOM
      1  N        -34.7180  -11.7710  -21.6600 N.3    51  TRP51      -0.1241
      2  CA       -33.7290  -10.7080  -21.4990 C.3    51  TRP51       0.1605
      3  C        -33.5440  -10.3380  -20.0250 C.2    51  TRP51       0.2264
      4  O        -32.4250  -10.0740  -19.5770 O.2    51  TRP51      -0.2867
      5  CB       -34.0540   -9.4810  -22.3670 C.3    51  TRP51       0.0550
      6  CG       -35.3810   -8.7750  -22.1120 C.ar   51  TRP51       0.0003
      7  CD1      -36.6270   -9.2250  -22.4500 C.ar   51  TRP51       0.0946
      8  CD2      -35.5750   -7.4860  -21.4980 C.ar   51  TRP51       0.0152
      9  NE1      -37.5890   -8.2990  -22.0830 N.ar   51  TRP51      -0.2442
     10  CE2      -36.9690   -7.2280  -21.4930 C.ar   51  TRP51       0.0810
     11  CE3      -34.7070   -6.5270  -20.9390 C.ar   51  TRP51       0.0012
     12  CZ2      -37.5170   -6.0560  -20.9460 C.ar   51  TRP51       0.0191
     13  CZ3      -35.2540   -5.3590  -20.3990 C.ar   51  TRP51       0.0001
     14  CH2      -36.6500   -5.1310  -20.4180 C.ar   51  TRP51       0.0015
     15  N        -30.1640  -10.9790  -17.8380 N.3    55  ARG55      -0.1245
     16  CA       -29.5810   -9.8000  -17.1880 C.3    55  ARG55       0.1563
     17  C        -29.3740  -10.0320  -15.7030 C.2    55  ARG55       0.2260
     18  O        -28.3390   -9.6700  -15.1500 O.2    55  ARG55      -0.2867
     19  CB       -30.4380   -8.5570  -17.4160 C.3    55  ARG55       0.0307
     20  CG       -30.2230   -7.9530  -18.7920 C.3    55  ARG55       0.0489
     21  CD       -31.1310   -6.7470  -18.9910 C.3    55  ARG55       0.2205
     22  NE       -30.9190   -6.1250  -20.3070 N.pl3  55  ARG55      -0.0865
     23  CZ       -31.3120   -4.8940  -20.6260 C.cat  55  ARG55       0.5346
     24  NH1      -31.9180   -4.1420  -19.7170 N.pl3  55  ARG55       0.1354
     25  NH2      -31.0730   -4.4020  -21.8440 N.pl3  55  ARG55       0.1354
     26  N        -31.8910   -9.9250  -29.8700 N.3   111  TYR111     -0.1241
     27  CA       -31.5670   -9.0090  -28.7770 C.3   111  TYR111      0.1605
     28  C        -31.4430   -9.7910  -27.4620 C.2   111  TYR111      0.2264
     29  O        -30.4870   -9.6260  -26.7030 O.2   111  TYR111     -0.2867
     30  CB       -32.6720   -7.9560  -28.6580 C.3   111  TYR111      0.0534
     31  CG       -32.4390   -6.9160  -27.5860 C.ar  111  TYR111     -0.0201
     32  CD1      -31.8910   -5.6700  -27.9010 C.ar  111  TYR111     -0.0009
     33  CD2      -32.7910   -7.1650  -26.2470 C.ar  111  TYR111     -0.0009
     34  CE1      -31.6810   -4.6930  -26.9070 C.ar  111  TYR111      0.0417
     35  CE2      -32.5870   -6.2040  -25.2410 C.ar  111  TYR111      0.0417
     36  CZ       -32.0170   -4.9750  -25.5770 C.ar  111  TYR111      0.1957
     37  OH       -31.8320   -4.0280  -24.5990 O.3   111  TYR111     -0.2866
     38  N        -29.4920   -2.1270  -32.4860 N.3   172  ASN172     -0.1240
     39  CA       -29.6610   -2.3290  -31.0370 C.3   172  ASN172      0.1653
     40  C        -29.2140   -3.7400  -30.6300 C.2   172  ASN172      0.2266
     41  O        -28.3810   -3.9100  -29.7230 O.2   172  ASN172     -0.2867
     42  CB       -31.1230   -2.0750  -30.6480 C.3   172  ASN172      0.1155
     43  CG       -31.3250   -1.8430  -29.1490 C.2   172  ASN172      0.2627
     44  OD1      -32.4710   -1.7100  -28.6900 O.2   172  ASN172     -0.2716
     45  ND2      -30.2430   -1.7800  -28.3900 N.am  172  ASN172     -0.0877
     46  N        -25.5350   -3.9820  -31.0730 N.3   175  MET175     -0.1230
     47  CA       -24.8500   -3.3060  -29.9490 C.3   175  MET175      0.1702
     48  C        -24.6810   -4.2560  -28.7770 C.2   175  MET175      0.2592
     49  O        -23.6060   -4.3410  -28.1950 O.2   175  MET175     -0.2718
     50  CB       -25.6090   -2.0580  -29.4890 C.3   175  MET175      0.0401
     51  CG       -24.8480   -1.2430  -28.4330 C.3   175  MET175      0.0596
     52  SD       -25.7910    0.1950  -27.8730 S.3   175  MET175     -0.1393
     53  CE       -27.0690   -0.6100  -26.9120 C.3   175  MET175      0.0692
     54  N        -25.7560   -4.9540  -28.4150 N.am  176  HIS176     -0.1976
     55  CA       -25.6680   -5.8720  -27.2720 C.3   176  HIS176      0.1656
     56  C        -24.8990   -7.1380  -27.6140 C.2   176  HIS176      0.2291
     57  O        -24.3500   -7.7960  -26.7310 O.2   176  HIS176     -0.2864
     58  CB       -27.0350   -6.0820  -26.6270 C.3   176  HIS176      0.0771
     59  CG       -27.4870   -4.8680  -25.8750 C.ar  176  HIS176      0.0820
     60  ND1      -26.8930   -4.4680  -24.6950 N.ar  176  HIS176     -0.2267
     61  CD2      -28.4090   -3.9200  -26.1710 C.ar  176  HIS176      0.1154
     62  CE1      -27.4610   -3.3520  -24.2730 C.ar  176  HIS176      0.1986
     63  NE2      -28.3760   -2.9930  -25.1540 N.ar  176  HIS176     -0.2212
     64  N        -30.3470    2.9980  -36.2510 N.3   218  GLU218     -0.1245
     65  CA       -30.6410    1.6790  -35.6830 C.3   218  GLU218      0.1567
     66  C        -31.3920    0.7170  -36.6000 C.2   218  GLU218      0.2260
     67  O        -31.2580   -0.4930  -36.4460 O.2   218  GLU218     -0.2867
     68  CB       -31.4240    1.8230  -34.3700 C.3   218  GLU218      0.0388
     69  CG       -30.7110    2.7020  -33.3670 C.3   218  GLU218      0.1160
     70  CD       -31.2560    2.6080  -31.9460 C.2   218  GLU218      0.3649
     71  OE1      -32.2820    1.9270  -31.7090 O.co2 218  GLU218     -0.2457
     72  OE2      -30.6400    3.2510  -31.0590 O.co2 218  GLU218     -0.2457
     73  N        -40.1010    0.7520  -27.0510 N.3   238  ARG238     -0.1231
     74  CA       -39.0980    0.4730  -26.0080 C.3   238  ARG238      0.1694
     75  C        -37.7290    0.0410  -26.5320 C.2   238  ARG238      0.2592
     76  O        -36.7210    0.2680  -25.8660 O.2   238  ARG238     -0.2718
     77  CB       -39.6160   -0.5890  -25.0510 C.3   238  ARG238      0.0321
     78  CG       -40.7510   -0.0960  -24.1950 C.3   238  ARG238      0.0489
     79  CD       -41.3890   -1.2340  -23.4640 C.3   238  ARG238      0.2205
     80  NE       -42.4550   -0.7380  -22.5960 N.pl3 238  ARG238     -0.0865
     81  CZ       -43.2100   -1.4980  -21.8080 C.cat 238  ARG238      0.5346
     82  NH1      -43.0170   -2.8100  -21.7480 N.pl3 238  ARG238      0.1354
     83  NH2      -44.1610   -0.9330  -21.0680 N.pl3 238  ARG238      0.1354
     84  N        -37.7000   -0.5630  -27.7230 N.am  239  PHE239     -0.1976
     85  CA       -36.4640   -1.1560  -28.2540 C.3   239  PHE239      0.1639
     86  C        -36.1120   -0.6820  -29.6470 C.2   239  PHE239      0.2290
     87  O        -34.9550   -0.8060  -30.0760 O.2   239  PHE239     -0.2864
     88  CB       -36.5380   -2.6890  -28.2450 C.3   239  PHE239      0.0560
     89  CG       -36.5500   -3.2750  -26.8600 C.ar  239  PHE239     -0.0200
     90  CD1      -37.7580   -3.5370  -26.2130 C.ar  239  PHE239     -0.0042
     91  CD2      -35.3520   -3.5120  -26.1790 C.ar  239  PHE239     -0.0042
     92  CE1      -37.7770   -4.0570  -24.9110 C.ar  239  PHE239     -0.0003
     93  CE2      -35.3590   -4.0260  -24.8710 C.ar  239  PHE239     -0.0003
     94  CZ       -36.5690   -4.2960  -24.2440 C.ar  239  PHE239     -0.0000
     95  N        -31.7690    7.2460  -30.8090 N.3   245  THR245     -0.1218
     96  CA       -31.9400    7.2240  -29.3470 C.3   245  THR245      0.1862
     97  C        -30.5980    7.4510  -28.6890 C.2   245  THR245      0.2287
     98  O        -29.7530    6.5610  -28.6330 O.2   245  THR245     -0.2866
     99  CB       -32.8810    6.0820  -28.7700 C.3   245  THR245      0.1770
    100  OG1      -32.3530    5.4020  -27.6140 O.3   245  THR245     -0.2211
    101  CG2      -33.4710    5.2060  -29.8170 C.3   245  THR245      0.0375
    102  N        -28.4280    5.1820  -26.5670 N.3   248  ALA248     -0.1245
    103  CA       -27.7000    4.1290  -27.2830 C.3   248  ALA248      0.1562
    104  C        -26.3810    4.6270  -27.8660 C.2   248  ALA248      0.2260
    105  O        -25.3980    3.8850  -27.8680 O.2   248  ALA248     -0.2867
    106  CB       -28.5540    3.5220  -28.3770 C.3   248  ALA248      0.0290
    107  N        -23.8960    4.6810  -25.0730 N.3   251  GLU251     -0.1245
    108  CA       -23.5770    3.2970  -24.7030 C.3   251  GLU251      0.1567
    109  C        -22.5870    2.6640  -25.6870 C.2   251  GLU251      0.2260
    110  O        -21.6050    2.0290  -25.2680 O.2   251  GLU251     -0.2867
    111  CB       -24.8590    2.4660  -24.6290 C.3   251  GLU251      0.0388
    112  CG       -24.6900    1.0960  -23.9510 C.3   251  GLU251      0.1160
    113  CD       -26.0090    0.4000  -23.6500 C.2   251  GLU251      0.3649
    114  OE1      -27.0900    0.9860  -23.9170 O.co2 251  GLU251     -0.2457
    115  OE2      -25.9640   -0.7550  -23.1730 O.co2 251  GLU251     -0.2457
    116  N        -35.3560   10.9550  -24.6990 N.3   300  TYR300     -0.1241
    117  CA       -35.3270    9.5670  -25.1470 C.3   300  TYR300      0.1605
    118  C        -34.9450    9.4240  -26.6190 C.2   300  TYR300      0.2264
    119  O        -34.1580    8.5480  -26.9820 O.2   300  TYR300     -0.2867
    120  CB       -36.6750    8.9080  -24.8730 C.3   300  TYR300      0.0534
    121  CG       -36.7370    7.4350  -25.2030 C.ar  300  TYR300     -0.0201
    122  CD1      -35.8820    6.5270  -24.5850 C.ar  300  TYR300     -0.0009
    123  CD2      -37.6650    6.9440  -26.1280 C.ar  300  TYR300     -0.0009
    124  CE1      -35.9410    5.1740  -24.8740 C.ar  300  TYR300      0.0417
    125  CE2      -37.7480    5.5790  -26.4110 C.ar  300  TYR300      0.0417
    126  CZ       -36.8740    4.7010  -25.7750 C.ar  300  TYR300      0.1957
    127  OH       -36.9460    3.3520  -26.0490 O.3   300  TYR300     -0.2866
    128  N        -32.1040    4.6050  -18.1940 N.3   316  TRP316     -0.1241
    129  CA       -30.8530    4.0240  -18.6750 C.3   316  TRP316      0.1605
    130  C        -29.9600    4.9780  -19.5050 C.2   316  TRP316      0.2264
    131  O        -28.7370    4.8590  -19.4310 O.2   316  TRP316     -0.2867
    132  CB       -31.0820    2.6740  -19.3670 C.3   316  TRP316      0.0550
    133  CG       -31.8290    2.7850  -20.6460 C.ar  316  TRP316      0.0003
    134  CD1      -33.1790    2.6920  -20.8200 C.ar  316  TRP316      0.0946
    135  CD2      -31.2640    3.0270  -21.9300 C.ar  316  TRP316      0.0152
    136  NE1      -33.4970    2.8700  -22.1510 N.ar  316  TRP316     -0.2442
    137  CE2      -32.3340    3.0810  -22.8530 C.ar  316  TRP316      0.0810
    138  CE3      -29.9550    3.2030  -22.3950 C.ar  316  TRP316      0.0012
    139  CZ2      -32.1320    3.3170  -24.2130 C.ar  316  TRP316      0.0191
    140  CZ3      -29.7540    3.4370  -23.7380 C.ar  316  TRP316      0.0001
    141  CH2      -30.8360    3.4820  -24.6400 C.ar  316  TRP316      0.0015
    142  N        -37.8490    4.4840  -13.2390 N.3   362  GLN362     -0.1245
    143  CA       -37.5310    4.0730  -14.6030 C.3   362  GLN362      0.1566
    144  C        -37.6830    5.2150  -15.6070 C.2   362  GLN362      0.2260
    145  O        -37.0030    5.2360  -16.6400 O.2   362  GLN362     -0.2867
    146  CB       -38.4020    2.8610  -15.0040 C.3   362  GLN362      0.0367
    147  CG       -38.3570    2.4370  -16.4870 C.3   362  GLN362      0.0905
    148  CD       -36.9970    1.8920  -16.9590 C.2   362  GLN362      0.2608
    149  OE1      -36.8590    1.4380  -18.1150 O.2   362  GLN362     -0.2717
    150  NE2      -36.0050    1.9190  -16.0820 N.am  362  GLN362     -0.0878
    151  N        -42.3140    3.0560  -20.4980 N.3   375  TRP375     -0.1241
    152  CA       -42.0820    1.8470  -19.7200 C.3   375  TRP375      0.1605
    153  C        -43.1750    1.6250  -18.6710 C.2   375  TRP375      0.2264
    154  O        -44.1370    2.3830  -18.6140 O.2   375  TRP375     -0.2867
    155  CB       -40.7060    1.9460  -19.0600 C.3   375  TRP375      0.0550
    156  CG       -39.5980    1.5930  -20.0240 C.ar  375  TRP375      0.0003
    157  CD1      -38.7880    2.4530  -20.7090 C.ar  375  TRP375      0.0946
    158  CD2      -39.2290    0.2760  -20.4250 C.ar  375  TRP375      0.0152
    159  NE1      -37.9130    1.7420  -21.5140 N.ar  375  TRP375     -0.2442
    160  CE2      -38.1710    0.4010  -21.3610 C.ar  375  TRP375      0.0810
    161  CE3      -39.6910   -1.0060  -20.0860 C.ar  375  TRP375      0.0012
    162  CZ2      -37.5510   -0.7160  -21.9510 C.ar  375  TRP375      0.0191
    163  CZ3      -39.0710   -2.1220  -20.6780 C.ar  375  TRP375      0.0001
    164  CH2      -38.0170   -1.9600  -21.6010 C.ar  375  TRP375      0.0015
    165  N        -38.1290   -2.8370  -13.8490 N.3   379  GLN379     -0.1231
    166  CA       -37.7810   -4.2180  -14.1730 C.3   379  GLN379      0.1698
    167  C        -36.2770   -4.4740  -14.3610 C.2   379  GLN379      0.2592
    168  O        -35.8740   -5.6320  -14.5070 O.2   379  GLN379     -0.2718
    169  CB       -38.5690   -4.6700  -15.4100 C.3   379  GLN379      0.0381
    170  CG       -37.9060   -4.4300  -16.7800 C.3   379  GLN379      0.0905
    171  CD       -37.6070   -2.9750  -17.1240 C.2   379  GLN379      0.2608
    172  OE1      -36.5940   -2.6820  -17.7650 O.2   379  GLN379     -0.2717
    173  NE2      -38.4890   -2.0650  -16.7290 N.am  379  GLN379     -0.0878
    174  N        -35.4600   -3.4120  -14.3610 N.am  380  ASP380     -0.1974
    175  CA       -34.0330   -3.5650  -14.6350 C.3   380  ASP380      0.1709
    176  C        -33.1640   -3.0430  -13.5100 C.2   380  ASP380      0.2293
    177  O        -33.4340   -1.9720  -12.9530 O.2   380  ASP380     -0.2864
    178  CB       -33.6390   -2.8260  -15.9180 C.3   380  ASP380      0.1436
    179  CG       -32.1840   -3.0680  -16.2970 C.2   380  ASP380      0.3671
    180  OD1      -31.3530   -2.1300  -16.1550 O.co2 380  ASP380     -0.2456
    181  OD2      -31.8810   -4.2120  -16.7030 O.co2 380  ASP380     -0.2456
    182  N        -28.4500   -2.1040  -15.9710 N.3   383  HIS383     -0.1241
    183  CA       -27.7700   -0.8830  -16.4400 C.3   383  HIS383      0.1621
    184  C        -27.0520   -0.1750  -15.3150 C.2   383  HIS383      0.2264
    185  O        -26.0100    0.4360  -15.5380 O.2   383  HIS383     -0.2867
    186  CB       -28.7260    0.1110  -17.0810 C.3   383  HIS383      0.0745
    187  CG       -29.1370   -0.2440  -18.4730 C.ar  383  HIS383      0.0817
    188  ND1      -28.3270   -0.0220  -19.5690 N.ar  383  HIS383     -0.2268
    189  CD2      -30.2930   -0.7630  -18.9510 C.ar  383  HIS383      0.1154
    190  CE1      -28.9630   -0.4130  -20.6580 C.ar  383  HIS383      0.1986
    191  NE2      -30.1590   -0.8580  -20.3140 N.ar  383  HIS383     -0.2212
@<TRIPOS>BOND
     1    66    67    2
     2    66    65    1
     3    64    65    1
     4    65    68    1
     5    68    69    1
     6    69    70    1
     7    38    39    1
     8    70    71   ar
     9    70    72   ar
    10    46    47    1
    11    39    42    1
    12    39    40    1
    13    95    96    1
    14    42    43    1
    15    40    41    2
    16    87    86    2
    17    47    50    1
    18    47    48    1
    19    26    27    1
    20   101    99    1
    21    86    85    1
    22    50    51    1
    23    96    99    1
    24    96    97    1
    25    43    44    2
    26    43    45   am
    27    48    54   am
    28    48    49    2
    29    27    30    1
    30    27    28    1
    31    99   100    1
    32    97    98    2
    33    30    31    1
    34    51    52    1
    35    54    55    1
    36   106   103    1
    37    85    88    1
    38    85    84    1
    39    88    89    1
    40    32    31   ar
    41    32    34   ar
    42    52    53    1
    43   105   104    2
    44   104   103    1
    45    84    75   am
    46    56    55    1
    47    56    57    2
    48    31    33   ar
    49    28    29    2
    50   103   102    1
    51    55    58    1
    52    73    74    1
    53   119   118    2
    54    34    36   ar
    55    89    90   ar
    56    89    91   ar
    57    58    59    1
    58   118   117    1
    59    75    74    1
    60    75    76    2
    61   125   123   ar
    62   125   126   ar
    63    33    35   ar
    64    90    92   ar
    65    91    93   ar
    66    61    59   ar
    67    61    63   ar
    68   123   121   ar
    69   127   126    1
    70    74    77    1
    71    59    60   ar
    72   126   124   ar
    73   109   110    2
    74   109   108    1
    75    36    35   ar
    76    36    37    1
    77   121   120    1
    78   121   122   ar
    79    63    62   ar
    80   117   120    1
    81   117   116    1
    82   107   108    1
    83    77    78    1
    84    92    94   ar
    85   124   122   ar
    86    93    94   ar
    87   108   111    1
    88    60    62   ar
    89   141   139   ar
    90   141   140   ar
    91   111   112    1
    92   139   137   ar
    93    78    79    1
    94   112   113    1
    95   114   113   ar
    96   140   138   ar
    97   113   115   ar
    98    79    80    1
    99   137   136   ar
   100   137   135   ar
   101    80    81    2
   102     7     6   ar
   103     7     9   ar
   104   138   135   ar
   105     5     6    1
   106     5     2    1
   107   136   134   ar
   108     6     8   ar
   109     9    10   ar
   110   162   164   ar
   111   162   160   ar
   112   135   133   ar
   113    25    23    1
   114    81    82    1
   115    81    83    1
   116     1     2    1
   117   164   163   ar
   118   159   160   ar
   119   159   157   ar
   120     2     3    1
   121     8    10   ar
   122     8    11   ar
   123    10    12   ar
   124   160   158   ar
   125    12    14   ar
   126    11    13   ar
   127   134   133   ar
   128   157   156   ar
   129   163   161   ar
   130   190   191   ar
   131   190   188   ar
   132   133   132    1
   133    23    22    2
   134    23    24    1
   135   151   152    1
   136   158   161   ar
   137   158   156   ar
   138    14    13   ar
   139   191   189   ar
   140    22    21    1
   141     3     4    2
   142   156   155    1
   143   152   155    1
   144   152   153    1
   145   188   187   ar
   146   130   131    2
   147   130   129    1
   148   132   129    1
   149    21    20    1
   150   189   187   ar
   151    20    19    1
   152   129   128    1
   153   153   154    2
   154   187   186    1
   155   149   148    2
   156    15    16    1
   157   172   171    2
   158    19    16    1
   159    16    17    1
   160   171   170    1
   161   171   173   am
   162   186   183    1
   163   148   147    1
   164   148   150   am
   165   170   169    1
   166   181   179   ar
   167   145   144    2
   168   147   146    1
   169   183   182    1
   170   183   184    1
   171   179   180   ar
   172   179   178    1
   173   178   175    1
   174    17    18    2
   175   144   143    1
   176   185   184    2
   177   169   166    1
   178   146   143    1
   179   175   174    1
   180   175   176    1
   181   143   142    1
   182   168   167    2
   183   174   167   am
   184   167   166    1
   185   166   165    1
   186   176   177    2
