@<TRIPOS>MOLECULE
tmp/2zboD00.pdb
 224 212 0 0 0
SMALL
GASTEIGER

@<TRIPOS>ATOM
      1  N         35.8080  -29.0420   30.9950 N.3     9  VAL9       -0.1231
      2  CA        34.8540  -28.0520   30.5140 C.3     9  VAL9        0.1692
      3  C         34.9390  -26.7780   31.3520 C.2     9  VAL9        0.2592
      4  O         34.9390  -25.6690   30.8160 O.2     9  VAL9       -0.2718
      5  CB        33.4010  -28.5970   30.5180 C.3     9  VAL9        0.0266
      6  CG1       32.4280  -27.5250   30.0460 C.3     9  VAL9        0.0020
      7  CG2       33.2920  -29.8440   29.6380 C.3     9  VAL9        0.0020
      8  N         35.0340  -26.9490   32.6700 N.am   10  PHE10      -0.1976
      9  CA        35.1550  -25.8240   33.5910 C.3    10  PHE10       0.1639
     10  C         36.4100  -24.9930   33.3100 C.2    10  PHE10       0.2290
     11  O         36.3520  -23.7670   33.2600 O.2    10  PHE10      -0.2864
     12  CB        35.2000  -26.3210   35.0460 C.3    10  PHE10       0.0560
     13  CG        35.1300  -25.2140   36.0580 C.ar   10  PHE10      -0.0200
     14  CD1       33.9080  -24.8020   36.5790 C.ar   10  PHE10      -0.0042
     15  CD2       36.2930  -24.5780   36.4960 C.ar   10  PHE10      -0.0042
     16  CE1       33.8490  -23.7770   37.5200 C.ar   10  PHE10      -0.0003
     17  CE2       36.2300  -23.5440   37.4310 C.ar   10  PHE10      -0.0003
     18  CZ        35.0140  -23.1410   37.9340 C.ar   10  PHE10      -0.0000
     19  N         35.8860  -22.9230   30.0220 N.3    13  ASN13      -0.1225
     20  CA        34.6950  -22.0870   29.8430 C.3    13  ASN13       0.1785
     21  C         34.2960  -21.2490   31.0600 C.2    13  ASN13       0.2597
     22  O         33.5910  -20.2570   30.9120 O.2    13  ASN13      -0.2718
     23  CB        33.5080  -22.9750   29.4320 C.3    13  ASN13       0.1169
     24  CG        33.7200  -23.6400   28.0950 C.2    13  ASN13       0.2627
     25  OD1       33.4900  -23.0210   27.0590 O.2    13  ASN13      -0.2716
     26  ND2       34.1670  -24.9030   28.1000 N.am   13  ASN13      -0.0877
     27  N         34.7460  -21.6450   32.2540 N.am   14  CYS14      -0.1970
     28  CA        34.2330  -21.0750   33.4950 C.3    14  CYS14       0.1712
     29  C         35.3140  -20.4080   34.3480 C.2    14  CYS14       0.2296
     30  O         35.0230  -19.5430   35.1740 O.2    14  CYS14      -0.2864
     31  CB        33.5620  -22.1800   34.3260 C.3    14  CYS14       0.0983
     32  SG        32.4090  -23.2310   33.3880 S.3    14  CYS14      -0.0798
     33  N         37.6970  -18.2910   33.9410 N.3    16  ALA16      -0.1231
     34  CA        38.0170  -16.8650   33.8850 C.3    16  ALA16       0.1694
     35  C         37.2850  -16.1060   34.9640 C.2    16  ALA16       0.2592
     36  O         37.8370  -15.1800   35.5610 O.2    16  ALA16      -0.2718
     37  CB        37.6710  -16.2840   32.5230 C.3    16  ALA16       0.0304
     38  N         36.0490  -16.5180   35.2390 N.am   17  CYS17      -0.1956
     39  CA        35.2270  -15.8020   36.2040 C.3    17  CYS17       0.1843
     40  C         35.1440  -16.5070   37.5530 C.2    17  CYS17       0.2625
     41  O         34.8740  -15.8450   38.5490 O.2    17  CYS17      -0.2714
     42  CB        33.8190  -15.6090   35.6580 C.3    17  CYS17       0.0997
     43  SG        33.7730  -14.5450   34.2070 S.3    17  CYS17      -0.0797
     44  N         35.3630  -17.8240   37.5730 N.am   18  HIS18      -0.1973
     45  CA        35.0760  -18.6620   38.7500 C.3    18  HIS18       0.1656
     46  C         36.3120  -19.4790   39.2170 C.2    18  HIS18       0.2291
     47  O         36.1750  -20.5370   39.8460 O.2    18  HIS18      -0.2864
     48  CB        33.8960  -19.6350   38.4480 C.3    18  HIS18       0.0771
     49  CG        32.5450  -18.9870   38.2470 C.ar   18  HIS18       0.0820
     50  ND1       31.8620  -18.3290   39.2510 N.ar   18  HIS18      -0.2267
     51  CD2       31.6970  -19.0110   37.1800 C.ar   18  HIS18       0.1154
     52  CE1       30.6780  -17.9300   38.7930 C.ar   18  HIS18       0.1986
     53  NE2       30.5470  -18.3370   37.5380 N.ar   18  HIS18      -0.2212
     54  N         34.1410  -15.9570   42.5080 N.3    23  ASN23      -0.1240
     55  CA        33.4760  -15.1850   41.4470 C.3    23  ASN23       0.1653
     56  C         34.0610  -13.7720   41.4100 C.2    23  ASN23       0.2266
     57  O         33.8610  -12.9960   42.3530 O.2    23  ASN23      -0.2867
     58  CB        31.9550  -15.1560   41.6940 C.3    23  ASN23       0.1155
     59  CG        31.1610  -14.5740   40.5230 C.2    23  ASN23       0.2627
     60  OD1       31.6510  -13.7210   39.7780 O.2    23  ASN23      -0.2716
     61  ND2       29.9070  -15.0150   40.3890 N.am   23  ASN23      -0.0877
     62  N         33.3620  -11.3650   39.2810 N.3    25  ILE25      -0.1231
     63  CA        32.4380  -10.3910   38.7080 C.3    25  ILE25       0.1692
     64  C         31.3720   -9.9920   39.7380 C.2    25  ILE25       0.2591
     65  O         31.0820   -8.8050   39.9300 O.2    25  ILE25      -0.2718
     66  CB        31.7830  -10.9400   37.3920 C.3    25  ILE25       0.0266
     67  CG1       32.8550  -11.3560   36.3690 C.3    25  ILE25       0.0019
     68  CG2       30.7960   -9.9270   36.8020 C.3    25  ILE25       0.0020
     69  CD1       33.9100  -10.2720   36.0310 C.3    25  ILE25       0.0001
     70  N         30.7800  -10.9890   40.3880 N.am   26  MET26      -0.1979
     71  CA        29.8650  -10.7520   41.5030 C.3    26  MET26       0.1605
     72  C         30.3580  -11.5610   42.7030 C.2    26  MET26       0.2287
     73  O         29.9410  -12.6960   42.9020 O.2    26  MET26      -0.2864
     74  CB        28.4220  -11.1060   41.1300 C.3    26  MET26       0.0413
     75  CG        27.4130  -10.5140   42.0830 C.3    26  MET26       0.0598
     76  SD        27.3960   -8.7020   42.0550 S.3    26  MET26      -0.1393
     77  CE        26.6670   -8.3470   40.4440 C.3    26  MET26       0.0692
     78  N         28.4820  -14.2910   44.8040 N.3    29  LYS29      -0.1231
     79  CA        27.8720  -15.4160   44.0950 C.3    29  LYS29       0.1693
     80  C         28.9000  -16.4920   43.7240 C.2    29  LYS29       0.2593
     81  O         29.1220  -16.7970   42.5440 O.2    29  LYS29      -0.2718
     82  CB        27.1220  -14.9110   42.8610 C.3    29  LYS29       0.0285
     83  CG        25.9340  -13.9960   43.1750 C.3    29  LYS29       0.0035
     84  CD        24.8450  -14.7280   43.9370 C.3    29  LYS29       0.0206
     85  CE        23.4450  -14.2940   43.5040 C.3    29  LYS29       0.1093
     86  NZ        23.2360  -12.8360   43.6220 N.3    29  LYS29      -0.1314
     87  N         29.5190  -17.0700   44.7500 N.am   30  THR30      -0.1939
     88  CA        30.5550  -18.0810   44.5660 C.3    30  THR30       0.2028
     89  C         29.9620  -19.4630   44.2640 C.2    30  THR30       0.2642
     90  O         28.7370  -19.6580   44.2940 O.2    30  THR30      -0.2714
     91  CB        31.4390  -18.2070   45.8310 C.3    30  THR30       0.1808
     92  OG1       30.6500  -18.7810   46.8730 O.3    30  THR30      -0.2208
     93  CG2       31.9590  -16.8520   46.2930 C.3    30  THR30       0.0379
     94  N         30.8420  -20.4190   43.9940 N.am   31  LEU31      -0.1977
     95  CA        30.4610  -21.8070   43.7850 C.3    31  LEU31       0.1596
     96  C         30.7860  -22.6120   45.0420 C.2    31  LEU31       0.2287
     97  O         30.9660  -23.8210   44.9770 O.2    31  LEU31      -0.2864
     98  CB        31.1810  -22.3980   42.5560 C.3    31  LEU31       0.0297
     99  CG        31.1720  -21.5400   41.2730 C.3    31  LEU31       0.0022
    100  CD1       31.7910  -22.2770   40.0760 C.3    31  LEU31       0.0001
    101  CD2       29.7750  -21.0560   40.9350 C.3    31  LEU31       0.0001
    102  N         27.1580  -20.6190   49.6740 N.3    35  ALA35      -0.1231
    103  CA        26.5570  -19.7320   48.6700 C.3    35  ALA35       0.1694
    104  C         25.5890  -20.4560   47.7230 C.2    35  ALA35       0.2591
    105  O         24.5170  -19.9360   47.4250 O.2    35  ALA35      -0.2718
    106  CB        27.6310  -19.0110   47.8770 C.3    35  ALA35       0.0304
    107  N         25.9680  -21.6440   47.2510 N.am   36  LEU36      -0.1980
    108  CA        25.0850  -22.4440   46.3880 C.3    36  LEU36       0.1596
    109  C         23.7830  -22.7910   47.1170 C.2    36  LEU36       0.2287
    110  O         22.6970  -22.6880   46.5460 O.2    36  LEU36      -0.2864
    111  CB        25.7840  -23.7180   45.9040 C.3    36  LEU36       0.0297
    112  CG        26.8870  -23.5980   44.8450 C.3    36  LEU36       0.0022
    113  CD1       27.3740  -24.9820   44.4470 C.3    36  LEU36       0.0001
    114  CD2       26.3930  -22.8430   43.6210 C.3    36  LEU36       0.0001
    115  N         21.5270  -19.5810   47.6340 N.3    39  ASN39      -0.1240
    116  CA        20.9140  -19.1450   46.3790 C.3    39  ASN39       0.1653
    117  C         20.0820  -20.2220   45.6950 C.2    39  ASN39       0.2266
    118  O         19.6310  -20.0420   44.5600 O.2    39  ASN39      -0.2867
    119  CB        22.0000  -18.6390   45.4290 C.3    39  ASN39       0.1155
    120  CG        22.6250  -17.3520   45.9070 C.2    39  ASN39       0.2627
    121  OD1       21.9590  -16.3170   45.9740 O.2    39  ASN39      -0.2716
    122  ND2       23.9080  -17.4030   46.2460 N.am   39  ASN39      -0.0877
    123  N         20.9940  -23.0490   44.4480 N.3    41  MET41      -0.1245
    124  CA        21.7100  -23.4360   43.2410 C.3    41  MET41       0.1570
    125  C         22.4770  -24.7360   43.4470 C.2    41  MET41       0.2261
    126  O         23.2460  -25.1550   42.5770 O.2    41  MET41      -0.2867
    127  CB        22.6770  -22.3200   42.8220 C.3    41  MET41       0.0387
    128  CG        21.9950  -21.0690   42.2840 C.3    41  MET41       0.0595
    129  SD        21.1260  -21.3520   40.7300 S.3    41  MET41      -0.1393
    130  CE        22.4920  -21.8220   39.6550 C.3    41  MET41       0.0692
    131  N         21.9880  -25.6630   38.3150 N.3    47  ILE47      -0.1245
    132  CA        23.2480  -25.2600   37.6680 C.3    47  ILE47       0.1561
    133  C         23.1460  -25.3950   36.1450 C.2    47  ILE47       0.2260
    134  O         23.5570  -24.4810   35.4130 O.2    47  ILE47      -0.2867
    135  CB        24.5020  -26.0100   38.2240 C.3    47  ILE47       0.0252
    136  CG1       24.7210  -25.6960   39.7150 C.3    47  ILE47       0.0019
    137  CG2       25.7680  -25.6250   37.4130 C.3    47  ILE47       0.0019
    138  CD1       25.6540  -26.6520   40.4470 C.3    47  ILE47       0.0001
    139  N         21.1410  -22.5280   34.6580 N.3    50  GLN50      -0.1231
    140  CA        21.8540  -21.2500   34.6190 C.3    50  GLN50       0.1698
    141  C         22.9910  -21.2570   33.6090 C.2    50  GLN50       0.2592
    142  O         23.2330  -20.2450   32.9640 O.2    50  GLN50      -0.2718
    143  CB        22.3690  -20.8260   36.0020 C.3    50  GLN50       0.0381
    144  CG        22.9370  -19.3840   36.0180 C.3    50  GLN50       0.0905
    145  CD        22.8290  -18.6890   37.3640 C.2    50  GLN50       0.2608
    146  OE1       23.7910  -18.0840   37.8430 O.2    50  GLN50      -0.2717
    147  NE2       21.6560  -18.7630   37.9770 N.am   50  GLN50      -0.0878
    148  N         23.6890  -22.3840   33.4820 N.am   51  VAL51      -0.1980
    149  CA        24.7440  -22.5020   32.4580 C.3    51  VAL51       0.1595
    150  C         24.1250  -22.3750   31.0560 C.2    51  VAL51       0.2287
    151  O         24.6210  -21.6280   30.2250 O.2    51  VAL51      -0.2864
    152  CB        25.5780  -23.7990   32.6180 C.3    51  VAL51       0.0276
    153  CG1       26.5410  -23.9870   31.4490 C.3    51  VAL51       0.0022
    154  CG2       26.3510  -23.7760   33.9430 C.3    51  VAL51       0.0022
    155  N         22.5620  -15.7150   33.3690 N.3    55  LYS55      -0.1231
    156  CA        21.8740  -14.9640   34.4180 C.3    55  LYS55       0.1693
    157  C         22.6210  -13.6560   34.6070 C.2    55  LYS55       0.2592
    158  O         23.7710  -13.6500   35.0790 O.2    55  LYS55      -0.2718
    159  CB        21.8440  -15.7440   35.7440 C.3    55  LYS55       0.0285
    160  CG        21.1550  -15.0180   36.9090 C.3    55  LYS55       0.0035
    161  CD        19.6510  -15.2500   36.9030 C.3    55  LYS55       0.0206
    162  CE        18.9330  -14.5130   38.0560 C.3    55  LYS55       0.1093
    163  NZ        19.3780  -14.9060   39.4390 N.3    55  LYS55      -0.1314
    164  N         21.9800  -12.5570   34.2210 N.am   56  ASN56      -0.1960
    165  CA        22.5780  -11.2240   34.3620 C.3    56  ASN56       0.1819
    166  C         23.9630  -11.1760   33.7070 C.2    56  ASN56       0.2621
    167  O         24.0780  -11.4120   32.5030 O.2    56  ASN56      -0.2715
    168  CB        22.5880  -10.7760   35.8340 C.3    56  ASN56       0.1195
    169  CG        21.1900  -10.7750   36.4410 C.2    56  ASN56       0.2630
    170  OD1       20.2220  -10.4480   35.7550 O.2    56  ASN56      -0.2716
    171  ND2       21.0780  -11.1570   37.7070 N.am   56  ASN56      -0.0877
    172  N         25.0110  -10.8770   34.4750 N.am   57  ALA57      -0.1963
    173  CA        26.3510  -10.7610   33.8950 C.3    57  ALA57       0.1728
    174  C         26.9320  -12.0880   33.4440 C.2    57  ALA57       0.2616
    175  O         27.8780  -12.1090   32.6410 O.2    57  ALA57      -0.2715
    176  CB        27.3290  -10.0430   34.8640 C.3    57  ALA57       0.0334
    177  N         26.3790  -13.1920   33.9410 N.am   58  MET58      -0.1964
    178  CA        26.8350  -14.5000   33.5020 C.3    58  MET58       0.1722
    179  C         26.2290  -14.8700   32.1480 C.2    58  MET58       0.2458
    180  O         25.0060  -14.8830   32.0110 O.2    58  MET58      -0.2730
    181  CB        26.4680  -15.5620   34.5130 C.3    58  MET58       0.0427
    182  CG        26.8120  -16.9620   34.0080 C.3    58  MET58       0.0599
    183  SD        26.9210  -18.1760   35.3120 S.3    58  MET58      -0.1393
    184  CE        26.5670  -19.6860   34.3880 C.3    58  MET58       0.0692
    185  N         27.0750  -15.1650   31.1430 N.am   59  PRO59      -0.2727
    186  CA        26.5140  -15.4520   29.8240 C.3    59  PRO59       0.1402
    187  C         25.8410  -16.8170   29.7080 C.2    59  PRO59       0.2269
    188  O         26.0160  -17.6810   30.5560 O.2    59  PRO59      -0.2865
    189  CB        27.7330  -15.3960   28.9040 C.3    59  PRO59       0.0296
    190  CG        28.8870  -15.7550   29.7650 C.3    59  PRO59       0.0237
    191  CD        28.5560  -15.1670   31.1250 C.3    59  PRO59       0.0939
    192  N         25.4440  -20.3750   27.8390 N.3    61  PHE61      -0.1241
    193  CA        26.3310  -21.3440   27.1770 C.3    61  PHE61       0.1605
    194  C         25.5940  -22.3580   26.3150 C.2    61  PHE61       0.2264
    195  O         26.2270  -23.1900   25.6750 O.2    61  PHE61      -0.2867
    196  CB        27.1980  -22.0760   28.2100 C.3    61  PHE61       0.0534
    197  CG        28.2330  -21.1930   28.8540 C.ar   61  PHE61      -0.0203
    198  CD1       27.8970  -20.4010   29.9410 C.ar   61  PHE61      -0.0042
    199  CD2       29.5320  -21.1400   28.3520 C.ar   61  PHE61      -0.0042
    200  CE1       28.8450  -19.5740   30.5430 C.ar   61  PHE61      -0.0003
    201  CE2       30.4920  -20.3150   28.9390 C.ar   61  PHE61      -0.0003
    202  CZ        30.1470  -19.5230   30.0340 C.ar   61  PHE61      -0.0000
    203  N         28.0360  -24.9220   24.3070 N.3    65  LEU65      -0.1245
    204  CA        28.3310  -26.2220   24.9090 C.3    65  LEU65       0.1561
    205  C         27.1830  -27.1860   24.6900 C.2    65  LEU65       0.2260
    206  O         26.0190  -26.7820   24.7510 O.2    65  LEU65      -0.2867
    207  CB        28.5730  -26.0600   26.4140 C.3    65  LEU65       0.0270
    208  CG        29.7770  -25.2230   26.8520 C.3    65  LEU65       0.0019
    209  CD1       29.8220  -25.1810   28.3700 C.3    65  LEU65       0.0001
    210  CD2       31.0680  -25.7870   26.2780 C.3    65  LEU65       0.0001
    211  N         29.8470  -30.3900   33.4600 N.3    73  VAL73      -0.1245
    212  CA        30.3960  -29.2750   34.2360 C.3    73  VAL73       0.1561
    213  C         29.5700  -29.0050   35.5010 C.2    73  VAL73       0.2260
    214  O         30.1200  -28.6840   36.5460 O.2    73  VAL73      -0.2867
    215  CB        30.6230  -27.9870   33.3720 C.3    73  VAL73       0.0252
    216  CG1       29.3010  -27.2470   33.0760 C.3    73  VAL73       0.0019
    217  CG2       31.6390  -27.0610   34.0540 C.3    73  VAL73       0.0019
    218  N         30.9970  -28.9750   39.2960 N.3    77  VAL77      -0.1245
    219  CA        30.8310  -27.8600   40.2320 C.3    77  VAL77       0.1561
    220  C         30.3030  -28.3540   41.5920 C.2    77  VAL77       0.2260
    221  O         30.8590  -28.0080   42.6430 O.2    77  VAL77      -0.2867
    222  CB        29.9470  -26.7200   39.6380 C.3    77  VAL77       0.0252
    223  CG1       29.5000  -25.7190   40.7070 C.3    77  VAL77       0.0019
    224  CG2       30.7120  -25.9860   38.5080 C.3    77  VAL77       0.0019
@<TRIPOS>BOND
     1   203   204    1
     2   205   206    2
     3   205   204    1
     4   204   207    1
     5   195   194    2
     6   210   208    1
     7   194   193    1
     8   207   208    1
     9   208   209    1
    10    25    24    2
    11   193   192    1
    12   193   196    1
    13    24    26   am
    14    24    23    1
    15   196   197    1
    16   199   197   ar
    17   199   201   ar
    18   197   198   ar
    19   189   190    1
    20   189   186    1
    21   201   202   ar
    22    23    20    1
    23     7     5    1
    24   187   186    1
    25   187   188    2
    26   190   191    1
    27   186   185    1
    28    20    19    1
    29    20    21    1
    30   198   200   ar
    31   202   200   ar
    32     6     5    1
    33   151   150    2
    34     2     5    1
    35     2     1    1
    36     2     3    1
    37     4     3    2
    38    22    21    2
    39   150   149    1
    40    21    27   am
    41   191   185    1
    42   185   179   am
    43     3     8   am
    44   153   152    1
    45   180   179    2
    46   179   178    1
    47    27    28    1
    48   149   152    1
    49   149   148    1
    50   167   166    2
    51    37    34    1
    52   152   154    1
    53   175   174    2
    54     8     9    1
    55   142   141    2
    56   216   215    1
    57    11    10    2
    58    10     9    1
    59   155   156    1
    60   215   217    1
    61   215   212    1
    62    32    31    1
    63   174   173    1
    64   174   177   am
    65   211   212    1
    66   148   141   am
    67    28    31    1
    68    28    29    1
    69   178   177    1
    70   178   181    1
    71     9    12    1
    72   141   140    1
    73   166   165    1
    74   166   172   am
    75    34    33    1
    76    34    35    1
    77   173   172    1
    78   173   176    1
    79   182   181    1
    80   182   183    1
    81    43    42    1
    82   164   165    1
    83   164   157   am
    84   212   213    1
    85    29    30    2
    86   165   168    1
    87   184   183    1
    88   156   157    1
    89   156   159    1
    90   157   158    2
    91   140   139    1
    92   140   143    1
    93    35    38   am
    94    35    36    2
    95    12    13    1
    96    38    39    1
    97   134   133    2
    98   213   214    2
    99    42    39    1
   100   159   160    1
   101   170   169    2
   102   168   169    1
   103   143   144    1
   104   144   145    1
   105    69    67    1
   106    13    15   ar
   107    13    14   ar
   108   133   132    1
   109    39    40    1
   110    67    66    1
   111   169   171   am
   112    15    17   ar
   113    14    16   ar
   114    68    66    1
   115   161   160    1
   116   161   162    1
   117    51    53   ar
   118    51    49   ar
   119   145   146    2
   120   145   147   am
   121    66    63    1
   122   137   135    1
   123    17    18   ar
   124    16    18   ar
   125    53    52   ar
   126    40    44   am
   127    40    41    2
   128    44    45    1
   129   132   135    1
   130   132   131    1
   131   162   163    1
   132   135   136    1
   133    49    48    1
   134    49    50   ar
   135    48    45    1
   136   224   222    1
   137    63    62    1
   138    63    64    1
   139    45    46    1
   140    52    50   ar
   141    46    47    2
   142   218   219    1
   143   222   219    1
   144   222   223    1
   145   130   129    1
   146   136   138    1
   147    64    65    2
   148    64    70   am
   149    60    59    2
   150   100    99    1
   151   219   220    1
   152    70    71    1
   153    61    59   am
   154    77    76    1
   155    59    58    1
   156   129   128    1
   157   101    99    1
   158    74    71    1
   159    74    75    1
   160    99    98    1
   161    56    55    1
   162    56    57    2
   163    55    58    1
   164    55    54    1
   165    71    72    1
   166   220   221    2
   167    76    75    1
   168   128   127    1
   169    81    80    2
   170    98    95    1
   171   126   125    2
   172    72    73    2
   173   127   124    1
   174    82    83    1
   175    82    79    1
   176    83    84    1
   177   124   125    1
   178   124   123    1
   179    85    86    1
   180    85    84    1
   181   114   112    1
   182    80    79    1
   183    80    87   am
   184    95    94    1
   185    95    96    1
   186    94    89   am
   187    79    78    1
   188    89    90    2
   189    89    88    1
   190   113   112    1
   191   118   117    2
   192    88    87    1
   193    88    91    1
   194   112   111    1
   195    97    96    2
   196   119   120    1
   197   119   116    1
   198   117   116    1
   199    91    93    1
   200    91    92    1
   201   111   108    1
   202   120   121    2
   203   120   122   am
   204   116   115    1
   205   108   109    1
   206   108   107    1
   207   110   109    2
   208   107   104   am
   209   105   104    2
   210   104   103    1
   211   106   103    1
   212   103   102    1
