@<TRIPOS>MOLECULE
tmp/2zbrA00.pdb
 155 146 0 0 0
SMALL
GASTEIGER

@<TRIPOS>ATOM
      1  N         30.2170   37.1000   15.0040 N.3    96  GLY96      -0.1225
      2  CA        30.2760   36.9710   13.5530 C.3    96  GLY96       0.1811
      3  C         29.3590   35.9150   12.9620 C.2    96  GLY96       0.2280
      4  O         29.6740   35.3060   11.9290 O.2    96  GLY96      -0.2866
      5  N         27.1730   41.2700    9.9350 N.3   101  THR101     -0.1218
      6  CA        28.5720   41.3020   10.3600 C.3   101  THR101      0.1862
      7  C         29.4310   40.7910    9.2180 C.2   101  THR101      0.2287
      8  O         30.5190   41.3350    8.9240 O.2   101  THR101     -0.2866
      9  CB        28.7840   40.4130   11.5840 C.3   101  THR101      0.1770
     10  OG1       28.0410   40.9490   12.6670 O.3   101  THR101     -0.2211
     11  CG2       30.2770   40.3800   11.9900 C.3   101  THR101      0.0375
     12  N         34.1020   52.5180   14.0520 N.3   120  ASP120     -0.1225
     13  CA        33.1990   51.3670   14.0450 C.3   120  ASP120      0.1805
     14  C         32.0870   51.8480   15.0310 C.2   120  ASP120      0.2598
     15  O         32.2620   51.8370   16.2440 O.2   120  ASP120     -0.2718
     16  CB        33.8930   50.1330   14.6000 C.3   120  ASP120      0.1424
     17  CG        32.9470   48.9440   14.7240 C.2   120  ASP120      0.3668
     18  OD1       31.7980   49.0340   14.1990 O.co2 120  ASP120     -0.2456
     19  OD2       33.3530   47.9440   15.3310 O.co2 120  ASP120     -0.2456
     20  N         30.9940   52.3430   14.4670 N.am  121  LEU121     -0.1966
     21  CA        29.9050   52.8770   15.2660 C.3   121  LEU121      0.1728
     22  C         28.9450   51.7940   15.7050 C.2   121  LEU121      0.2617
     23  O         28.2350   51.2380   14.8750 O.2   121  LEU121     -0.2715
     24  CB        29.1850   53.9410   14.4510 C.3   121  LEU121      0.0311
     25  CG        28.0280   54.6650   15.1540 C.3   121  LEU121      0.0022
     26  CD1       28.5490   55.4710   16.3170 C.3   121  LEU121      0.0001
     27  CD2       27.2700   55.5350   14.0840 C.3   121  LEU121      0.0001
     28  N         28.8830   51.5450   17.0150 N.am  122  GLY122     -0.1940
     29  CA        28.0220   50.4990   17.5710 C.3   122  GLY122      0.2014
     30  C         28.8610   49.2360   17.4870 C.2   122  GLY122      0.2640
     31  O         28.4540   48.1790   16.9630 O.2   122  GLY122     -0.2714
     32  N         30.0680   49.3520   18.0380 N.am  123  THR123     -0.1936
     33  CA        31.0870   48.2740   17.9700 C.3   123  THR123      0.2028
     34  C         30.7310   46.9320   18.5970 C.2   123  THR123      0.2643
     35  O         31.1860   45.9030   18.1390 O.2   123  THR123     -0.2714
     36  CB        32.4590   48.8070   18.5380 C.3   123  THR123      0.1808
     37  OG1       33.5390   47.9950   18.0370 O.3   123  THR123     -0.2208
     38  CG2       32.4540   48.7780   20.0960 C.3   123  THR123      0.0379
     39  N         29.8890   46.9100   19.6460 N.am  124  GLY124     -0.1939
     40  CA        29.5370   45.6230   20.2430 C.3   124  GLY124      0.2014
     41  C         30.7290   44.7790   20.7150 C.2   124  GLY124      0.2639
     42  O         31.5110   45.2160   21.5350 O.2   124  GLY124     -0.2714
     43  N         30.8410   43.5660   20.1780 N.am  125  SER125     -0.1949
     44  CA        31.9250   42.6340   20.4690 C.3   125  SER125      0.1924
     45  C         33.3090   43.2030   20.0260 C.2   125  SER125      0.2314
     46  O         34.3410   42.6230   20.3950 O.2   125  SER125     -0.2863
     47  CB        31.7260   41.3350   19.6720 C.3   125  SER125      0.2116
     48  OG        31.9380   41.5990   18.2670 O.3   125  SER125     -0.2180
     49  N         34.2620   43.2620   16.8700 N.3   127  VAL127     -0.1231
     50  CA        34.7060   42.5040   15.6970 C.3   127  VAL127      0.1692
     51  C         35.1160   43.3390   14.4960 C.2   127  VAL127      0.2591
     52  O         36.1500   43.0420   13.8570 O.2   127  VAL127     -0.2718
     53  CB        33.6380   41.4590   15.2370 C.3   127  VAL127      0.0266
     54  CG1       32.3030   42.1690   14.7510 C.3   127  VAL127      0.0020
     55  CG2       34.2130   40.6170   14.0810 C.3   127  VAL127      0.0020
     56  N         34.3500   44.3910   14.1890 N.am  128  LEU128     -0.1980
     57  CA        34.6840   45.1880   13.0180 C.3   128  LEU128      0.1596
     58  C         35.9540   46.0300   13.2520 C.2   128  LEU128      0.2287
     59  O         36.8040   46.1300   12.3570 O.2   128  LEU128     -0.2864
     60  CB        33.4920   46.0500   12.5570 C.3   128  LEU128      0.0297
     61  CG        32.2210   45.1890   12.2060 C.3   128  LEU128      0.0022
     62  CD1       31.0800   46.1410   11.8380 C.3   128  LEU128      0.0001
     63  CD2       32.4620   44.1940   11.0380 C.3   128  LEU128      0.0001
     64  N         33.0560   52.6600   19.0700 N.3   142  VAL142     -0.1231
     65  CA        32.2300   53.2740   20.1180 C.3   142  VAL142      0.1692
     66  C         30.8880   52.5000   20.2670 C.2   142  VAL142      0.2592
     67  O         30.3790   51.8600   19.3220 O.2   142  VAL142     -0.2718
     68  CB        31.9160   54.7480   19.8440 C.3   142  VAL142      0.0266
     69  CG1       33.2230   55.5430   19.5860 C.3   142  VAL142      0.0020
     70  CG2       30.9260   54.8660   18.6780 C.3   142  VAL142      0.0020
     71  N         30.3670   52.4750   21.4940 N.am  143  ASP143     -0.1960
     72  CA        29.0760   51.8340   21.7130 C.3   143  ASP143      0.1840
     73  C         28.3590   52.5940   22.8320 C.2   143  ASP143      0.2622
     74  O         28.9950   53.0370   23.7920 O.2   143  ASP143     -0.2715
     75  CB        29.2120   50.3860   22.1290 C.3   143  ASP143      0.1450
     76  CG        27.9870   49.5740   21.7560 C.2   143  ASP143      0.3671
     77  OD1       28.0940   48.7380   20.8550 O.co2 143  ASP143     -0.2456
     78  OD2       26.9130   49.7780   22.3490 O.co2 143  ASP143     -0.2456
     79  N         27.0460   52.7510   22.6940 N.am  144  ILE144     -0.1963
     80  CA        26.3140   53.4560   23.7570 C.3   144  ILE144      0.1727
     81  C         26.1120   52.6060   25.0070 C.2   144  ILE144      0.2616
     82  O         25.8000   53.1200   26.0830 O.2   144  ILE144     -0.2715
     83  CB        24.9670   53.9610   23.2780 C.3   144  ILE144      0.0290
     84  CG1       24.1310   52.8190   22.7150 C.3   144  ILE144      0.0022
     85  CG2       25.1810   55.0930   22.3170 C.3   144  ILE144      0.0023
     86  CD1       22.6600   53.2360   22.5640 C.3   144  ILE144      0.0001
     87  N         26.3440   51.3100   24.8740 N.am  145  ASP145     -0.1971
     88  CA        26.1990   50.3760   25.9520 C.3   145  ASP145      0.1709
     89  C         27.5760   50.1000   26.5550 C.2   145  ASP145      0.2293
     90  O         28.3610   49.2860   26.0220 O.2   145  ASP145     -0.2864
     91  CB        25.5840   49.0680   25.4280 C.3   145  ASP145      0.1436
     92  CG        25.4230   48.0210   26.5140 C.2   145  ASP145      0.3671
     93  OD1       25.7950   48.3210   27.6710 O.co2 145  ASP145     -0.2456
     94  OD2       24.9420   46.8890   26.2210 O.co2 145  ASP145     -0.2456
     95  N         29.4710   46.4160   26.8900 N.3   148  VAL148     -0.1245
     96  CA        30.1400   45.6470   25.8480 C.3   148  VAL148      0.1561
     97  C         31.6160   45.9960   25.7470 C.2   148  VAL148      0.2260
     98  O         32.3940   45.2230   25.2090 O.2   148  VAL148     -0.2867
     99  CB        29.5170   45.8600   24.4430 C.3   148  VAL148      0.0252
    100  CG1       27.9930   45.6110   24.5000 C.3   148  VAL148      0.0019
    101  CG2       29.8440   47.2460   23.9140 C.3   148  VAL148      0.0019
    102  N         29.7830   55.6140   24.0180 N.3   168  GLY168     -0.1210
    103  CA        29.1540   56.7560   23.4100 C.3   168  GLY168      0.1956
    104  C         28.7450   56.4570   22.0070 C.2   168  GLY168      0.2612
    105  O         28.6510   55.2990   21.5900 O.2   168  GLY168     -0.2717
    106  N         28.4900   57.5240   21.2700 N.am  169  SER169     -0.1952
    107  CA        28.0920   57.3590   19.8820 C.3   169  SER169      0.1924
    108  C         28.9150   58.2680   19.0050 C.2   169  SER169      0.2314
    109  O         30.0360   58.6330   19.3320 O.2   169  SER169     -0.2863
    110  CB        26.5990   57.6730   19.7000 C.3   169  SER169      0.2116
    111  OG        26.1710   57.3720   18.3690 O.3   169  SER169     -0.2180
    112  N         26.9330   49.0330   11.7220 N.3   185  ASN185     -0.1225
    113  CA        25.9660   47.9440   11.6160 C.3   185  ASN185      0.1785
    114  C         24.8490   48.3170   12.6240 C.2   185  ASN185      0.2597
    115  O         24.9190   47.9870   13.8230 O.2   185  ASN185     -0.2718
    116  CB        26.6170   46.6090   11.9910 C.3   185  ASN185      0.1169
    117  CG        25.6870   45.4290   11.7560 C.2   185  ASN185      0.2627
    118  OD1       24.5310   45.6210   11.3870 O.2   185  ASN185     -0.2716
    119  ND2       26.1860   44.2170   11.9490 N.am  185  ASN185     -0.0877
    120  N         23.8590   49.0730   12.1300 N.am  186  LEU186     -0.1966
    121  CA        22.7820   49.5600   12.9830 C.3   186  LEU186      0.1728
    122  C         21.4440   49.1420   12.3830 C.2   186  LEU186      0.2616
    123  O         21.1450   47.9440   12.3510 O.2   186  LEU186     -0.2715
    124  CB        22.9510   51.0860   13.1010 C.3   186  LEU186      0.0311
    125  CG        24.2850   51.4880   13.7870 C.3   186  LEU186      0.0022
    126  CD1       24.5550   52.9970   13.6520 C.3   186  LEU186      0.0001
    127  CD2       24.2870   51.0800   15.2930 C.3   186  LEU186      0.0001
    128  N         20.6390   50.1010   11.9190 N.am  187  TYR187     -0.1974
    129  CA        19.3730   49.7720   11.2450 C.3   187  TYR187      0.1639
    130  C         19.0060   50.9640   10.3640 C.2   187  TYR187      0.2290
    131  O         19.4270   52.0820   10.6270 O.2   187  TYR187     -0.2864
    132  CB        18.2740   49.3580   12.2540 C.3   187  TYR187      0.0560
    133  CG        17.9200   50.3900   13.2730 C.ar  187  TYR187     -0.0198
    134  CD1       16.9060   51.3220   13.0200 C.ar  187  TYR187     -0.0009
    135  CD2       18.5920   50.4490   14.4840 C.ar  187  TYR187     -0.0009
    136  CE1       16.5740   52.2870   13.9510 C.ar  187  TYR187      0.0417
    137  CE2       18.2640   51.4110   15.4300 C.ar  187  TYR187      0.0417
    138  CZ        17.2500   52.3220   15.1530 C.ar  187  TYR187      0.1957
    139  OH        16.8920   53.2490   16.1020 O.3   187  TYR187     -0.2866
    140  N         17.8960   54.5120   11.6790 N.3   190  LEU190     -0.1245
    141  CA        18.9290   55.2240   12.4140 C.3   190  LEU190      0.1561
    142  C         19.9620   55.8130   11.4300 C.2   190  LEU190      0.2260
    143  O         20.4160   56.9660   11.5960 O.2   190  LEU190     -0.2867
    144  CB        19.6080   54.2980   13.4260 C.3   190  LEU190      0.0270
    145  CG        20.6940   54.9490   14.3010 C.3   190  LEU190      0.0019
    146  CD1       20.2600   56.3290   14.7680 C.3   190  LEU190      0.0001
    147  CD2       21.0040   54.0460   15.5040 C.3   190  LEU190      0.0001
    148  N         21.0750   59.6850   10.8550 N.3   194  LEU194     -0.1245
    149  CA        22.4690   60.1110   11.0250 C.3   194  LEU194      0.1561
    150  C         23.2200   60.5490    9.7560 C.2   194  LEU194      0.2260
    151  O         24.3110   61.1070    9.8740 O.2   194  LEU194     -0.2867
    152  CB        23.2890   59.0120   11.7120 C.3   194  LEU194      0.0270
    153  CG        22.8450   58.5640   13.0980 C.3   194  LEU194      0.0019
    154  CD1       23.6420   57.3450   13.5010 C.3   194  LEU194      0.0001
    155  CD2       23.0260   59.7150   14.1200 C.3   194  LEU194      0.0001
@<TRIPOS>BOND
     1     8     7    2
     2     7     6    1
     3   150   151    2
     4   150   149    1
     5     5     6    1
     6     6     9    1
     7   130   131    2
     8   130   129    1
     9   148   149    1
    10   149   152    1
    11    63    61    1
    12   129   128    1
    13   129   132    1
    14   118   117    2
    15   142   143    2
    16   142   141    1
    17     9    11    1
    18     9    10    1
    19   113   112    1
    20   113   116    1
    21   113   114    1
    22   140   141    1
    23   152   153    1
    24   117   119   am
    25   117   116    1
    26    62    61    1
    27   128   122   am
    28     4     3    2
    29   120   114   am
    30   120   121    1
    31    61    60    1
    32   132   133    1
    33   123   122    2
    34    59    58    2
    35   122   121    1
    36   141   144    1
    37    60    57    1
    38   114   115    2
    39     3     2    1
    40   121   124    1
    41    57    58    1
    42    57    56    1
    43   134   133   ar
    44   134   136   ar
    45   153   154    1
    46   153   155    1
    47   124   125    1
    48   133   135   ar
    49   144   145    1
    50     2     1    1
    51   126   125    1
    52   125   127    1
    53    52    51    2
    54   136   138   ar
    55    13    12    1
    56    13    16    1
    57    13    14    1
    58    55    53    1
    59    27    25    1
    60    56    51   am
    61    18    17   ar
    62   145   146    1
    63   145   147    1
    64    24    25    1
    65    24    21    1
    66    20    14   am
    67    20    21    1
    68   135   137   ar
    69    51    50    1
    70    16    17    1
    71    17    19   ar
    72    54    53    1
    73    23    22    2
    74    14    15    2
    75   138   137   ar
    76   138   139    1
    77    25    26    1
    78    53    50    1
    79    21    22    1
    80    50    49    1
    81    22    28   am
    82    31    30    2
    83    28    29    1
    84    30    29    1
    85    30    32   am
    86    33    32    1
    87    33    36    1
    88    33    34    1
    89    37    36    1
    90    35    34    2
    91    48    47    1
    92   111   110    1
    93    36    38    1
    94    34    39   am
    95    70    68    1
    96   108   109    2
    97   108   107    1
    98    64    65    1
    99    67    66    2
   100    69    68    1
   101    39    40    1
   102    47    44    1
   103   110   107    1
   104    68    65    1
   105   107   106    1
   106    45    46    2
   107    45    44    1
   108    65    66    1
   109    43    44    1
   110    43    41   am
   111    40    41    1
   112    66    71   am
   113    41    42    2
   114    77    76   ar
   115   106   104   am
   116    71    72    1
   117   105   104    2
   118    72    75    1
   119    72    73    1
   120    76    75    1
   121    76    78   ar
   122   104   103    1
   123    85    83    1
   124    86    84    1
   125    79    73   am
   126    79    80    1
   127    84    83    1
   128    73    74    2
   129    83    80    1
   130   103   102    1
   131    80    81    1
   132   101    99    1
   133    99   100    1
   134    99    96    1
   135    87    81   am
   136    87    88    1
   137    81    82    2
   138    98    97    2
   139    91    88    1
   140    91    92    1
   141    97    96    1
   142    96    95    1
   143    88    89    1
   144    90    89    2
   145    94    92   ar
   146    92    93   ar
