@<TRIPOS>MOLECULE
tmp/2zbtA00.pdb
 106 96 0 0 0
SMALL
GASTEIGER

@<TRIPOS>ATOM
      1  N         37.5170    4.8670   34.4490 N.3    25  ASP25      -0.1239
      2  CA        36.9170    3.6070   34.0160 C.3    25  ASP25       0.1674
      3  C         37.0510    3.5510   32.4930 C.2    25  ASP25       0.2266
      4  O         36.7270    4.5200   31.8110 O.2    25  ASP25      -0.2867
      5  CB        35.4220    3.5790   34.3530 C.3    25  ASP25       0.1410
      6  CG        35.1410    3.2310   35.7990 C.2    25  ASP25       0.3668
      7  OD1       36.0850    3.1750   36.6110 O.co2  25  ASP25      -0.2456
      8  OD2       33.9510    3.0180   36.1210 O.co2  25  ASP25      -0.2456
      9  N         40.7070    1.9030   35.1700 N.3    44  MET44      -0.1245
     10  CA        39.9300    0.8170   35.7530 C.3    44  MET44       0.1570
     11  C         39.2940    0.0750   34.5770 C.2    44  MET44       0.2261
     12  O         38.3640    0.5750   33.9440 O.2    44  MET44      -0.2867
     13  CB        38.8480    1.3910   36.6780 C.3    44  MET44       0.0387
     14  CG        37.9470    0.3530   37.3470 C.3    44  MET44       0.0595
     15  SD        38.7960   -0.6660   38.5680 S.3    44  MET44      -0.1393
     16  CE        39.0480    0.5280   39.8930 C.3    44  MET44       0.0692
     17  N         37.9150   -4.8380   38.7700 N.3    82  LYS82      -0.1245
     18  CA        37.0150   -5.1110   39.8850 C.3    82  LYS82       0.1561
     19  C         36.6210   -6.5640   40.1080 C.2    82  LYS82       0.2260
     20  O         36.6210   -7.3790   39.1890 O.2    82  LYS82      -0.2867
     21  CB        35.7350   -4.2960   39.7110 C.3    82  LYS82       0.0271
     22  CG        35.9670   -2.8040   39.5600 C.3    82  LYS82       0.0035
     23  CD        34.6570   -2.0590   39.3490 C.3    82  LYS82       0.0206
     24  CE        34.9020   -0.5640   39.2650 C.3    82  LYS82       0.1093
     25  NZ        33.6350    0.2020   39.1250 N.3    82  LYS82      -0.1314
     26  N         39.8190   -3.7100   42.8490 N.3   103  ASP103     -0.1239
     27  CA        38.7800   -2.9460   43.5190 C.3   103  ASP103      0.1674
     28  C         37.6830   -3.9220   43.9290 C.2   103  ASP103      0.2266
     29  O         37.0020   -4.4820   43.0710 O.2   103  ASP103     -0.2867
     30  CB        38.2210   -1.8720   42.5760 C.3   103  ASP103      0.1410
     31  CG        37.0600   -1.0960   43.1800 C.2   103  ASP103      0.3668
     32  OD1       36.8100   -1.2230   44.3970 O.co2 103  ASP103     -0.2456
     33  OD2       36.3990   -0.3440   42.4310 O.co2 103  ASP103     -0.2456
     34  N         34.5490   -4.1470   44.6660 N.3   105  SER105     -0.1217
     35  CA        33.4810   -3.1960   44.4140 C.3   105  SER105      0.1889
     36  C         32.0320   -3.5360   44.6920 C.2   105  SER105      0.2288
     37  O         31.5140   -4.5470   44.2250 O.2   105  SER105     -0.2866
     38  CB        33.5970   -2.7290   42.9620 C.3   105  SER105      0.2089
     39  OG        32.4830   -1.9430   42.5830 O.3   105  SER105     -0.2183
     40  N         29.7530   -2.0270   43.4430 N.3   107  VAL107     -0.1245
     41  CA        29.0560   -1.7090   42.1970 C.3   107  VAL107      0.1561
     42  C         28.7700   -3.0110   41.4510 C.2   107  VAL107      0.2260
     43  O         27.8380   -3.0900   40.6460 O.2   107  VAL107     -0.2867
     44  CB        29.8990   -0.7790   41.2980 C.3   107  VAL107      0.0252
     45  CG1       29.1130   -0.4050   40.0590 C.3   107  VAL107      0.0019
     46  CG2       30.2910    0.4760   42.0710 C.3   107  VAL107      0.0019
     47  N         38.0910    4.4070   49.1030 N.3   148  ARG148     -0.1245
     48  CA        37.4140    5.3820   48.2660 C.3   148  ARG148      0.1563
     49  C         36.0130    5.5200   48.8240 C.2   148  ARG148      0.2260
     50  O         35.4940    4.5900   49.4450 O.2   148  ARG148     -0.2867
     51  CB        37.3350    4.9150   46.8110 C.3   148  ARG148      0.0307
     52  CG        36.6070    3.5970   46.6310 C.3   148  ARG148      0.0489
     53  CD        36.4250    3.2290   45.1660 C.3   148  ARG148      0.2205
     54  NE        35.8930    1.8750   45.0480 N.pl3 148  ARG148     -0.0865
     55  CZ        34.6870    1.5020   45.4670 C.cat 148  ARG148      0.5346
     56  NH1       33.8680    2.3850   46.0250 N.pl3 148  ARG148      0.1354
     57  NH2       34.3110    0.2350   45.3580 N.pl3 148  ARG148      0.1354
     58  N         32.0070    5.6080   48.6780 N.3   150  LYS150     -0.1245
     59  CA        31.1340    4.7840   47.8610 C.3   150  LYS150      0.1561
     60  C         30.3600    5.7120   46.9370 C.2   150  LYS150      0.2260
     61  O         30.0530    5.3580   45.7950 O.2   150  LYS150     -0.2867
     62  CB        30.1620    3.9880   48.7280 C.3   150  LYS150      0.0271
     63  CG        30.8010    2.8060   49.4290 C.3   150  LYS150      0.0035
     64  CD        29.7530    1.9590   50.1210 C.3   150  LYS150      0.0206
     65  CE        30.3870    0.8030   50.8710 C.3   150  LYS150      0.1093
     66  NZ        29.3490   -0.0280   51.5490 N.3   150  LYS150     -0.1314
     67  N         26.2720    5.5370   42.6470 N.3   153  ALA153     -0.1245
     68  CA        26.5630    5.0630   41.3000 C.3   153  ALA153      0.1562
     69  C         25.3900    5.1680   40.3290 C.2   153  ALA153      0.2260
     70  O         24.2270    5.0590   40.7210 O.2   153  ALA153     -0.2867
     71  CB        27.0600    3.6210   41.3600 C.3   153  ALA153      0.0290
     72  N         34.8090    8.8550   44.9420 N.3   213  ALA213     -0.1231
     73  CA        34.2660    8.0460   43.8590 C.3   213  ALA213      0.1694
     74  C         32.7500    7.9710   43.9240 C.2   213  ALA213      0.2593
     75  O         32.1610    8.0350   45.0040 O.2   213  ALA213     -0.2718
     76  CB        34.8590    6.6360   43.9100 C.3   213  ALA213      0.0304
     77  N         32.1230    7.8460   42.7580 N.am  214  GLY214     -0.1942
     78  CA        30.6780    7.7350   42.7010 C.3   214  GLY214      0.2014
     79  C         29.9310    9.0460   42.5890 C.2   214  GLY214      0.2639
     80  O         29.6910    9.7150   43.5900 O.2   214  GLY214     -0.2714
     81  N         29.5690    9.4160   41.3650 N.am  215  GLY215     -0.1954
     82  CA        28.8210   10.6420   41.1570 C.3   215  GLY215      0.1869
     83  C         29.6230   11.8660   40.7560 C.2   215  GLY215      0.2309
     84  O         29.0690   12.9600   40.6720 O.2   215  GLY215     -0.2863
     85  N         38.0300    8.9470   41.3360 N.3   234  PHE234     -0.1227
     86  CA        37.7600    7.8720   40.3830 C.3   234  PHE234      0.1736
     87  C         36.5900    8.4370   39.5760 C.2   234  PHE234      0.2595
     88  O         35.6420    8.9660   40.1660 O.2   234  PHE234     -0.2718
     89  CB        37.2580    6.6090   41.0940 C.3   234  PHE234      0.0547
     90  CG        38.3330    5.7690   41.7170 C.ar  234  PHE234     -0.0202
     91  CD1       39.0280    4.8290   40.9610 C.ar  234  PHE234     -0.0042
     92  CD2       38.6110    5.8720   43.0740 C.ar  234  PHE234     -0.0042
     93  CE1       39.9790    3.9980   41.5530 C.ar  234  PHE234     -0.0003
     94  CE2       39.5590    5.0490   43.6760 C.ar  234  PHE234     -0.0003
     95  CZ        40.2450    4.1070   42.9130 C.ar  234  PHE234     -0.0000
     96  N         36.6440    8.3440   38.2500 N.am  235  VAL235     -0.1966
     97  CA        35.5470    8.8280   37.4060 C.3   235  VAL235      0.1727
     98  C         35.0960    7.7420   36.4340 C.2   235  VAL235      0.2616
     99  O         35.9020    6.9320   35.9810 O.2   235  VAL235     -0.2715
    100  CB        35.9390   10.0860   36.6000 C.3   235  VAL235      0.0290
    101  CG1       36.2140   11.2360   37.5470 C.3   235  VAL235      0.0023
    102  CG2       37.1510    9.8000   35.7310 C.3   235  VAL235      0.0023
    103  N         33.8030    7.7420   36.1200 N.am  236  GLY236     -0.1955
    104  CA        33.2360    6.7470   35.2260 C.3   236  GLY236      0.1869
    105  C         33.4980    6.9300   33.7430 C.2   236  GLY236      0.2309
    106  O         34.0400    7.9450   33.3040 O.2   236  GLY236     -0.2863
@<TRIPOS>BOND
     1     4     3    2
     2     3     2    1
     3   106   105    2
     4   105   104    1
     5    12    11    2
     6     2     5    1
     7     2     1    1
     8     5     6    1
     9    11    10    1
    10     9    10    1
    11   104   103    1
    12   102   100    1
    13    10    13    1
    14     6     8   ar
    15     6     7   ar
    16    99    98    2
    17   103    98   am
    18    98    97    1
    19   100    97    1
    20   100   101    1
    21    13    14    1
    22    14    15    1
    23    97    96    1
    24    96    87   am
    25    15    16    1
    26    17    18    1
    27    25    24    1
    28    20    19    2
    29    24    23    1
    30    23    22    1
    31    22    21    1
    32    87    88    2
    33    87    86    1
    34    21    18    1
    35    18    19    1
    36    45    44    1
    37    69    70    2
    38    69    68    1
    39    86    89    1
    40    86    85    1
    41    43    42    2
    42    84    83    2
    43    83    82    1
    44    91    93   ar
    45    91    90   ar
    46    89    90    1
    47    82    81    1
    48    44    46    1
    49    44    41    1
    50    68    71    1
    51    68    67    1
    52    81    79   am
    53    42    41    1
    54    93    95   ar
    55    90    92   ar
    56    41    40    1
    57    33    31   ar
    58    30    31    1
    59    30    27    1
    60    39    38    1
    61    79    78    1
    62    79    80    2
    63    78    77    1
    64    77    74   am
    65    26    27    1
    66    95    94   ar
    67    38    35    1
    68    29    28    2
    69    92    94   ar
    70    31    32   ar
    71    27    28    1
    72    73    76    1
    73    73    74    1
    74    73    72    1
    75    74    75    2
    76    37    36    2
    77    35    34    1
    78    35    36    1
    79    54    53    1
    80    54    55    2
    81    53    52    1
    82    57    55    1
    83    55    56    1
    84    61    60    2
    85    52    51    1
    86    51    48    1
    87    60    59    1
    88    59    58    1
    89    59    62    1
    90    48    49    1
    91    48    47    1
    92    62    63    1
    93    49    50    2
    94    63    64    1
    95    64    65    1
    96    65    66    1
