@<TRIPOS>MOLECULE
tmp/2zbvC01.pdb
 106 107 0 0 0
SMALL
GASTEIGER

@<TRIPOS>ATOM
      1  N         19.1130   35.3050   27.1010 N.3     6  ASP6       -0.1225
      2  CA        19.8020   35.0780   28.3660 C.3     6  ASP6        0.1805
      3  C         19.9850   33.5660   28.5150 C.2     6  ASP6        0.2597
      4  O         20.2260   33.0610   29.6080 O.2     6  ASP6       -0.2718
      5  CB        18.9760   35.6390   29.5420 C.3     6  ASP6        0.1424
      6  CG        17.6200   34.9510   29.7030 C.2     6  ASP6        0.3668
      7  OD1       17.1390   34.3260   28.7380 O.co2   6  ASP6       -0.2456
      8  OD2       17.0220   35.0430   30.7980 O.co2   6  ASP6       -0.2456
      9  N         19.8930   32.8500   27.3960 N.am    7  TRP7       -0.1976
     10  CA        20.0040   31.3960   27.4100 C.3     7  TRP7        0.1640
     11  C         21.3990   30.8090   27.6070 C.2     7  TRP7        0.2290
     12  O         21.5240   29.6780   28.0620 O.2     7  TRP7       -0.2864
     13  CB        19.4290   30.8120   26.1140 C.3     7  TRP7        0.0576
     14  CG        18.0540   31.2770   25.7770 C.ar    7  TRP7        0.0006
     15  CD1       17.2180   32.0240   26.5630 C.ar    7  TRP7        0.0946
     16  CD2       17.3630   31.0630   24.5470 C.ar    7  TRP7        0.0152
     17  NE1       16.0500   32.2940   25.8910 N.ar    7  TRP7       -0.2442
     18  CE2       16.1110   31.7140   24.6500 C.ar    7  TRP7        0.0810
     19  CE3       17.6770   30.3850   23.3600 C.ar    7  TRP7        0.0012
     20  CZ2       15.1750   31.7080   23.6130 C.ar    7  TRP7        0.0191
     21  CZ3       16.7410   30.3820   22.3230 C.ar    7  TRP7        0.0001
     22  CH2       15.5080   31.0390   22.4590 C.ar    7  TRP7        0.0015
     23  N         17.2860   36.3850   33.3160 N.3    40  PHE40      -0.1241
     24  CA        16.1440   37.2470   33.6440 C.3    40  PHE40       0.1605
     25  C         16.3830   38.7500   33.6420 C.2    40  PHE40       0.2264
     26  O         15.4480   39.5150   33.8630 O.2    40  PHE40      -0.2867
     27  CB        15.5610   36.8800   35.0210 C.3    40  PHE40       0.0534
     28  CG        15.7630   35.4420   35.4130 C.ar   40  PHE40      -0.0203
     29  CD1       15.3960   34.4100   34.5530 C.ar   40  PHE40      -0.0042
     30  CD2       16.3460   35.1240   36.6360 C.ar   40  PHE40      -0.0042
     31  CE1       15.6140   33.0800   34.9070 C.ar   40  PHE40      -0.0003
     32  CE2       16.5690   33.7940   37.0000 C.ar   40  PHE40      -0.0003
     33  CZ        16.2030   32.7700   36.1330 C.ar   40  PHE40      -0.0000
     34  N         14.7080   37.4000   23.4510 N.3    65  VAL65      -0.1231
     35  CA        14.0660   36.5270   24.4140 C.3    65  VAL65       0.1692
     36  C         14.7640   36.3540   25.7530 C.2    65  VAL65       0.2592
     37  O         15.6310   35.4920   25.9170 O.2    65  VAL65      -0.2718
     38  CB        13.8140   35.1200   23.8180 C.3    65  VAL65       0.0266
     39  CG1       12.9600   34.3030   24.7720 C.3    65  VAL65       0.0020
     40  CG2       13.1280   35.2320   22.4570 C.3    65  VAL65       0.0020
     41  N         14.3860   37.2170   26.6920 N.am   66  VAL66      -0.1966
     42  CA        14.8390   37.1930   28.0860 C.3    66  VAL66       0.1727
     43  C         13.4090   37.1780   28.6360 C.2    66  VAL66       0.2616
     44  O         12.7950   38.2330   28.8340 O.2    66  VAL66      -0.2715
     45  CB        15.5680   38.4940   28.4700 C.3    66  VAL66       0.0290
     46  CG1       15.9040   38.4850   29.9670 C.3    66  VAL66       0.0023
     47  CG2       16.8590   38.6290   27.6400 C.3    66  VAL66       0.0023
     48  N         12.8860   35.9700   28.8530 N.am   67  ASP67      -0.1957
     49  CA        11.4820   35.7860   29.2100 C.3    67  ASP67       0.1840
     50  C         11.1590   34.9450   30.4510 C.2    67  ASP67       0.2622
     51  O         10.6730   33.8160   30.3430 O.2    67  ASP67      -0.2715
     52  CB        10.8180   35.2100   27.9450 C.3    67  ASP67       0.1450
     53  CG         9.3180   35.0460   28.0560 C.2    67  ASP67       0.3671
     54  OD1        8.6680   35.7880   28.8220 O.co2  67  ASP67      -0.2456
     55  OD2        8.7910   34.1690   27.3320 O.co2  67  ASP67      -0.2456
     56  N         11.4170   35.5090   31.6290 N.am   68  TYR68      -0.1974
     57  CA        11.1480   34.8200   32.8880 C.3    68  TYR68       0.1639
     58  C          9.6520   34.5470   33.0530 C.2    68  TYR68       0.2290
     59  O          9.2520   33.6810   33.8340 O.2    68  TYR68      -0.2864
     60  CB        11.6660   35.6600   34.0660 C.3    68  TYR68       0.0560
     61  CG        11.0280   37.0370   34.1870 C.ar   68  TYR68      -0.0198
     62  CD1        9.7850   37.2010   34.7990 C.ar   68  TYR68      -0.0009
     63  CD2       11.6560   38.1680   33.6620 C.ar   68  TYR68      -0.0009
     64  CE1        9.1780   38.4530   34.8850 C.ar   68  TYR68       0.0417
     65  CE2       11.0580   39.4290   33.7390 C.ar   68  TYR68       0.0417
     66  CZ         9.8160   39.5620   34.3520 C.ar   68  TYR68       0.1957
     67  OH         9.2060   40.7940   34.4190 O.3    68  TYR68      -0.2866
     68  N          7.6960   33.4190   30.6870 N.3    70  VAL70      -0.1245
     69  CA         7.2740   32.4700   29.6630 C.3    70  VAL70       0.1561
     70  C          6.1740   31.5530   30.1980 C.2    70  VAL70       0.2260
     71  O          6.2660   31.0410   31.3140 O.2    70  VAL70      -0.2867
     72  CB         8.4640   31.6030   29.1900 C.3    70  VAL70       0.0252
     73  CG1        9.0260   30.7980   30.3650 C.3    70  VAL70       0.0019
     74  CG2        8.0240   30.6820   28.0560 C.3    70  VAL70       0.0019
     75  N          7.4830   26.3680   28.6890 N.3   123  THR123     -0.1203
     76  CA         8.6530   27.1390   29.0760 C.3   123  THR123      0.1994
     77  C          9.6720   27.4670   27.9810 C.2   123  THR123      0.2618
     78  O         10.7620   27.9470   28.2870 O.2   123  THR123     -0.2717
     79  CB         9.3850   26.4460   30.2450 C.3   123  THR123      0.1784
     80  OG1        9.7170   25.1030   29.8740 O.3   123  THR123     -0.2211
     81  CG2        8.4890   26.4090   31.4890 C.3   123  THR123      0.0376
     82  N          9.3390   27.2210   26.7170 N.am  124  PHE124     -0.1961
     83  CA        10.2850   27.5520   25.6510 C.3   124  PHE124      0.1771
     84  C          9.5970   28.2290   24.4740 C.2   124  PHE124      0.2620
     85  O          9.6680   27.7530   23.3470 O.2   124  PHE124     -0.2715
     86  CB        11.0360   26.2950   25.1780 C.3   124  PHE124      0.0574
     87  CG        12.3590   26.5830   24.4780 C.ar  124  PHE124     -0.0200
     88  CD1       12.8520   27.8820   24.3720 C.ar  124  PHE124     -0.0042
     89  CD2       13.1110   25.5400   23.9350 C.ar  124  PHE124     -0.0042
     90  CE1       14.0720   28.1400   23.7370 C.ar  124  PHE124     -0.0003
     91  CE2       14.3350   25.7850   23.2970 C.ar  124  PHE124     -0.0003
     92  CZ        14.8150   27.0920   23.1990 C.ar  124  PHE124     -0.0000
     93  N          8.9170   29.3390   24.7480 N.am  125  HIS125     -0.1959
     94  CA         8.2400   30.0980   23.6970 C.3   125  HIS125      0.1787
     95  C          9.2770   30.6440   22.7140 C.2   125  HIS125      0.2620
     96  O          8.9690   30.9230   21.5500 O.2   125  HIS125     -0.2715
     97  CB         7.4360   31.2490   24.3060 C.3   125  HIS125      0.0785
     98  CG         6.1430   30.8210   24.9290 C.ar  125  HIS125      0.0821
     99  ND1        5.7670   29.4970   25.0310 N.ar  125  HIS125     -0.2267
    100  CD2        5.1340   31.5410   25.4750 C.ar  125  HIS125      0.1154
    101  CE1        4.5830   29.4210   25.6120 C.ar  125  HIS125      0.1986
    102  NE2        4.1770   30.6470   25.8910 N.ar  125  HIS125     -0.2212
    103  N         10.5130   30.7900   23.1850 N.am  126  GLY126     -0.1954
    104  CA        11.5630   31.2870   22.3170 C.3   126  GLY126      0.1869
    105  C         11.6620   30.4160   21.0780 C.2   126  GLY126      0.2309
    106  O         11.7840   30.9090   19.9610 O.2   126  GLY126     -0.2863
@<TRIPOS>BOND
     1   106   105    2
     2   105   104    1
     3    96    95    2
     4   104   103    1
     5    21    22   ar
     6    21    19   ar
     7    40    38    1
     8    22    20   ar
     9    95   103   am
    10    95    94    1
    11    92    91   ar
    12    92    90   ar
    13    91    89   ar
    14    85    84    2
    15    19    16   ar
    16    34    35    1
    17    20    18   ar
    18    94    97    1
    19    94    93    1
    20    90    88   ar
    21    38    35    1
    22    38    39    1
    23    89    87   ar
    24    97    98    1
    25    88    87   ar
    26    35    36    1
    27    84    93   am
    28    84    83    1
    29    87    86    1
    30    16    18   ar
    31    16    14   ar
    32    18    17   ar
    33    98    99   ar
    34    98   100   ar
    35    99   101   ar
    36    86    83    1
    37   100   102   ar
    38   101   102   ar
    39    83    82    1
    40    36    37    2
    41    36    41   am
    42    14    13    1
    43    14    15   ar
    44    17    15   ar
    45    13    10    1
    46    41    42    1
    47    82    77   am
    48     1     2    1
    49    55    53   ar
    50     9    10    1
    51     9     3   am
    52    10    11    1
    53    11    12    2
    54    47    45    1
    55    52    53    1
    56    52    49    1
    57    77    78    2
    58    77    76    1
    59    74    72    1
    60    53    54   ar
    61    42    45    1
    62    42    43    1
    63     2     3    1
    64     2     5    1
    65    45    46    1
    66     3     4    2
    67    43    44    2
    68    43    48   am
    69    75    76    1
    70     7     6   ar
    71    48    49    1
    72    76    79    1
    73    72    69    1
    74    72    73    1
    75    49    50    1
    76     5     6    1
    77    69    70    1
    78    69    68    1
    79     6     8   ar
    80    80    79    1
    81    70    71    2
    82    79    81    1
    83    51    50    2
    84    50    56   am
    85    56    57    1
    86    57    58    1
    87    57    60    1
    88    58    59    2
    89    23    24    1
    90    25    24    1
    91    25    26    2
    92    24    27    1
    93    63    65   ar
    94    63    61   ar
    95    65    66   ar
    96    60    61    1
    97    61    62   ar
    98    66    67    1
    99    66    64   ar
   100    29    31   ar
   101    29    28   ar
   102    62    64   ar
   103    31    33   ar
   104    27    28    1
   105    28    30   ar
   106    33    32   ar
   107    30    32   ar
