@<TRIPOS>MOLECULE
tmp/2zbzA01.pdb
 198 183 0 0 0
SMALL
GASTEIGER

@<TRIPOS>ATOM
      1  N         -1.9190   -1.5820    5.2340 N.3    70  ARG70      -0.1245
      2  CA        -2.5780   -1.7980    6.5160 C.3    70  ARG70       0.1563
      3  C         -4.0760   -2.1060    6.3710 C.2    70  ARG70       0.2260
      4  O         -4.7290   -2.5070    7.3410 O.2    70  ARG70      -0.2867
      5  CB        -2.3330   -0.5970    7.4380 C.3    70  ARG70       0.0307
      6  CG        -0.8460   -0.3430    7.7160 C.3    70  ARG70       0.0489
      7  CD        -0.6100    1.0270    8.3080 C.3    70  ARG70       0.2205
      8  NE         0.5710    1.0480    9.1690 N.pl3  70  ARG70      -0.0865
      9  CZ         0.8470    2.0080   10.0470 C.cat  70  ARG70       0.5346
     10  NH1        0.0270    3.0410   10.1940 N.pl3  70  ARG70       0.1354
     11  NH2        1.9470    1.9310   10.7870 N.pl3  70  ARG70       0.1354
     12  N         -1.5850   -5.4710   16.0670 N.3    78  THR78      -0.1203
     13  CA        -1.0300   -5.8830   17.3620 C.3    78  THR78       0.1994
     14  C         -1.9470   -5.6120   18.5600 C.2    78  THR78       0.2618
     15  O         -1.7150   -6.1300   19.6560 O.2    78  THR78      -0.2717
     16  CB         0.3660   -5.2550   17.6170 C.3    78  THR78       0.1784
     17  OG1        0.3920   -3.9110   17.1210 O.3    78  THR78      -0.2211
     18  CG2        1.4400   -6.0560   16.9140 C.3    78  THR78       0.0376
     19  N         -2.9780   -4.7980   18.3490 N.am   79  SER79      -0.1951
     20  CA        -3.9580   -4.4880   19.3900 C.3    79  SER79       0.1924
     21  C         -5.3120   -4.1700   18.7560 C.2    79  SER79       0.2314
     22  O         -5.3720   -3.8820   17.5570 O.2    79  SER79      -0.2863
     23  CB        -3.4740   -3.3190   20.2630 C.3    79  SER79       0.2116
     24  OG        -3.3210   -2.1310   19.5040 O.3    79  SER79      -0.2180
     25  N         -7.0000   -1.5190   19.0980 N.3    81  ALA81      -0.1231
     26  CA        -6.9550   -0.1100   18.7040 C.3    81  ALA81       0.1694
     27  C         -6.4790    0.0960   17.2670 C.2    81  ALA81       0.2592
     28  O         -6.9280    1.0210   16.5870 O.2    81  ALA81      -0.2718
     29  CB        -6.0800    0.6700   19.6640 C.3    81  ALA81       0.0304
     30  N         -5.5850   -0.7820   16.8090 N.am   82  PHE82      -0.1976
     31  CA        -5.0020   -0.6920   15.4680 C.3    82  PHE82       0.1639
     32  C         -6.0470   -0.6990   14.3440 C.2    82  PHE82       0.2290
     33  O         -5.7800   -0.2260   13.2400 O.2    82  PHE82      -0.2864
     34  CB        -3.9570   -1.7980   15.2520 C.3    82  PHE82       0.0560
     35  CG        -2.9990   -1.5140   14.1250 C.ar   82  PHE82      -0.0200
     36  CD1       -1.8420   -0.7760   14.3490 C.ar   82  PHE82      -0.0042
     37  CD2       -3.2600   -1.9740   12.8380 C.ar   82  PHE82      -0.0042
     38  CE1       -0.9600   -0.5020   13.3040 C.ar   82  PHE82      -0.0003
     39  CE2       -2.3870   -1.7020   11.7920 C.ar   82  PHE82      -0.0003
     40  CZ        -1.2340   -0.9690   12.0270 C.ar   82  PHE82      -0.0000
     41  N         -8.4030    1.1390   13.7910 N.3    84  ALA84      -0.1231
     42  CA        -8.7980    2.4970   13.4150 C.3    84  ALA84       0.1694
     43  C         -7.9080    3.0880   12.3140 C.2    84  ALA84       0.2591
     44  O         -8.1990    4.1640   11.7740 O.2    84  ALA84      -0.2718
     45  CB        -8.8000    3.4000   14.6390 C.3    84  ALA84       0.0304
     46  N         -6.8180    2.3900   12.0020 N.am   85  VAL85      -0.1980
     47  CA        -5.9500    2.7600   10.8850 C.3    85  VAL85       0.1595
     48  C         -6.5760    2.2750    9.5770 C.2    85  VAL85       0.2287
     49  O         -6.5510    2.9780    8.5650 O.2    85  VAL85      -0.2864
     50  CB        -4.5170    2.1880   11.0550 C.3    85  VAL85       0.0276
     51  CG1       -3.6630    2.4650    9.8220 C.3    85  VAL85       0.0022
     52  CG2       -3.8570    2.7730   12.2860 C.3    85  VAL85       0.0022
     53  N         -9.8800    4.7610    7.6860 N.3    88  SER88      -0.1203
     54  CA        -9.7650    5.9740    6.8800 C.3    88  SER88       0.2005
     55  C         -8.7420    5.7650    5.7710 C.2    88  SER88       0.2461
     56  O         -7.9790    4.7930    5.8200 O.2    88  SER88      -0.2732
     57  CB        -9.3530    7.1540    7.7560 C.3    88  SER88       0.2103
     58  OG       -10.3370    7.4250    8.7350 O.3    88  SER88      -0.2182
     59  N         -8.7300    6.6580    4.7570 N.am   89  PRO89      -0.2717
     60  CA        -7.6860    6.5750    3.7370 C.3    89  PRO89       0.1535
     61  C         -6.2990    6.5690    4.3730 C.2    89  PRO89       0.2598
     62  O         -6.0740    7.2200    5.3930 O.2    89  PRO89      -0.2715
     63  CB        -7.9030    7.8470    2.9080 C.3    89  PRO89       0.0310
     64  CG        -9.3570    8.1230    3.0500 C.3    89  PRO89       0.0237
     65  CD        -9.6710    7.7620    4.4780 C.3    89  PRO89       0.0939
     66  N         -5.3900    5.8130    3.7770 N.am   90  GLN90      -0.1964
     67  CA        -4.0650    5.6260    4.3400 C.3    90  GLN90       0.1733
     68  C         -3.1890    6.8350    4.0710 C.2    90  GLN90       0.2616
     69  O         -3.2030    7.3820    2.9660 O.2    90  GLN90      -0.2715
     70  CB        -3.4100    4.3790    3.7390 C.3    90  GLN90       0.0408
     71  CG        -4.1250    3.0790    4.0610 C.3    90  GLN90       0.0908
     72  CD        -4.0040    2.6940    5.5140 C.2    90  GLN90       0.2608
     73  OE1       -2.9010    2.5210    6.0320 O.2    90  GLN90      -0.2717
     74  NE2       -5.1390    2.5600    6.1870 N.am   90  GLN90      -0.0878
     75  N         -2.4420    7.2520    5.0910 N.am   91  ALA91      -0.1977
     76  CA        -1.2960    8.1280    4.8910 C.3    91  ALA91       0.1597
     77  C         -0.1880    7.2660    4.2870 C.2    91  ALA91       0.2287
     78  O         -0.2810    6.0290    4.3160 O.2    91  ALA91      -0.2864
     79  CB        -0.8510    8.7440    6.2090 C.3    91  ALA91       0.0319
     80  N          2.5560    6.0940    5.0940 N.3    93  ILE93      -0.1245
     81  CA         3.1230    5.0110    5.9110 C.3    93  ILE93       0.1561
     82  C          2.4410    3.6620    5.6030 C.2    93  ILE93       0.2260
     83  O          3.0520    2.6000    5.7440 O.2    93  ILE93      -0.2867
     84  CB         3.1180    5.3580    7.4400 C.3    93  ILE93       0.0252
     85  CG1        4.0170    4.3910    8.2310 C.3    93  ILE93       0.0019
     86  CG2        1.6760    5.4550    8.0020 C.3    93  ILE93       0.0019
     87  CD1        4.3900    4.8830    9.6250 C.3    93  ILE93       0.0001
     88  N         -5.3600    8.7860   20.7940 N.3   177  LEU177     -0.1231
     89  CA        -5.2440    7.9550   19.5980 C.3   177  LEU177      0.1693
     90  C         -4.1450    6.8940   19.7320 C.2   177  LEU177      0.2591
     91  O         -4.4060    5.7020   19.5640 O.2   177  LEU177     -0.2718
     92  CB        -5.0170    8.8220   18.3500 C.3   177  LEU177      0.0284
     93  CG        -5.0870    8.1350   16.9810 C.3   177  LEU177      0.0019
     94  CD1       -6.4650    7.5480   16.7180 C.3   177  LEU177      0.0001
     95  CD2       -4.7240    9.1010   15.8790 C.3   177  LEU177      0.0001
     96  N         -2.9310    7.3380   20.0450 N.am  178  VAL178     -0.1980
     97  CA        -1.7570    6.4540   20.1090 C.3   178  VAL178      0.1595
     98  C         -1.8470    5.4540   21.2650 C.2   178  VAL178      0.2287
     99  O         -1.4280    4.2970   21.1300 O.2   178  VAL178     -0.2864
    100  CB        -0.4430    7.2800   20.1890 C.3   178  VAL178      0.0276
    101  CG1        0.7730    6.3920   20.4220 C.3   178  VAL178      0.0022
    102  CG2       -0.2580    8.0870   18.9190 C.3   178  VAL178      0.0022
    103  N         -4.7150    4.5010   22.8120 N.3   180  SER180     -0.1217
    104  CA        -6.0440    3.8900   22.8680 C.3   180  SER180      0.1889
    105  C         -5.9640    2.3920   23.1140 C.2   180  SER180      0.2288
    106  O         -5.0780    1.7130   22.5930 O.2   180  SER180     -0.2866
    107  CB        -6.8110    4.1510   21.5740 C.3   180  SER180      0.2089
    108  OG        -6.0410    3.7710   20.4460 O.3   180  SER180     -0.2183
    109  N        -10.1040    4.6850   19.8420 N.3   186  ALA186     -0.1245
    110  CA        -9.1840    5.1320   18.7920 C.3   186  ALA186      0.1562
    111  C         -9.9160    5.8860   17.6870 C.2   186  ALA186      0.2260
    112  O         -9.4950    6.9700   17.2760 O.2   186  ALA186     -0.2867
    113  CB        -8.4270    3.9450   18.2150 C.3   186  ALA186      0.0290
    114  N         -9.4710    9.7470   16.4750 N.3   190  ARG190     -0.1245
    115  CA        -9.2150   10.0000   15.0560 C.3   190  ARG190      0.1563
    116  C        -10.2420   10.9560   14.4560 C.2   190  ARG190      0.2260
    117  O         -9.8780   11.9020   13.7600 O.2   190  ARG190     -0.2867
    118  CB        -9.1990    8.7020   14.2480 C.3   190  ARG190      0.0307
    119  CG        -8.3300    8.8180   13.0110 C.3   190  ARG190      0.0489
    120  CD        -9.0290    8.3970   11.7350 C.3   190  ARG190      0.2205
    121  NE        -8.2280    8.7870   10.5720 N.pl3 190  ARG190     -0.0865
    122  CZ        -8.5420    9.7580    9.7170 C.cat 190  ARG190      0.5346
    123  NH1       -9.6740   10.4390    9.8520 N.pl3 190  ARG190      0.1354
    124  NH2       -7.7320   10.0290    8.7040 N.pl3 190  ARG190      0.1354
    125  N         -5.2200   12.7120    6.6430 N.3   233  SER233     -0.1217
    126  CA        -4.4460   11.5630    7.1200 C.3   233  SER233      0.1889
    127  C         -2.9560   11.8790    7.2090 C.2   233  SER233      0.2288
    128  O         -2.3000   11.5260    8.1920 O.2   233  SER233     -0.2866
    129  CB        -4.6620   10.3550    6.2050 C.3   233  SER233      0.2089
    130  OG        -5.9560    9.8060    6.3940 O.3   233  SER233     -0.2183
    131  N         -2.2940   14.3080    9.9860 N.3   236  MET236     -0.1230
    132  CA        -2.4330   13.5760   11.2540 C.3   236  MET236      0.1702
    133  C         -1.2080   12.7070   11.5760 C.2   236  MET236      0.2592
    134  O         -0.7390   12.6780   12.7240 O.2   236  MET236     -0.2718
    135  CB        -3.7020   12.7250   11.2500 C.3   236  MET236      0.0401
    136  CG        -4.1600   12.3480   12.6400 C.3   236  MET236      0.0596
    137  SD        -5.6140   11.2890   12.6560 S.3   236  MET236     -0.1393
    138  CE        -6.7480   12.2680   11.6700 C.3   236  MET236      0.0692
    139  N         -0.6890   12.0150   10.5640 N.am  237  LEU237     -0.1980
    140  CA         0.5210   11.2020   10.7230 C.3   237  LEU237      0.1596
    141  C          1.6980   12.0550   11.1990 C.2   237  LEU237      0.2287
    142  O          2.3540   11.7150   12.1790 O.2   237  LEU237     -0.2864
    143  CB         0.8840   10.4930    9.4120 C.3   237  LEU237      0.0297
    144  CG         2.2410    9.7730    9.3570 C.3   237  LEU237      0.0022
    145  CD1        2.2900    8.6130   10.3520 C.3   237  LEU237      0.0001
    146  CD2        2.5040    9.2860    7.9450 C.3   237  LEU237      0.0001
    147  N          1.0950   13.5680   14.8490 N.3   240  ILE240     -0.1245
    148  CA         1.2370   12.5750   15.9120 C.3   240  ILE240      0.1561
    149  C          2.6700   12.0590   16.0420 C.2   240  ILE240      0.2260
    150  O          3.1990   11.9940   17.1560 O.2   240  ILE240     -0.2867
    151  CB         0.2160   11.4410   15.7500 C.3   240  ILE240      0.0252
    152  CG1       -1.1670   11.9630   16.1350 C.3   240  ILE240      0.0019
    153  CG2        0.5920   10.2340   16.6080 C.3   240  ILE240      0.0019
    154  CD1       -2.2940   11.1950   15.5320 C.3   240  ILE240      0.0001
    155  N          9.9480    3.0450   18.9000 N.3   288  ALA288     -0.1245
    156  CA         8.9260    2.5830   17.9620 C.3   288  ALA288      0.1562
    157  C          9.2420    1.1620   17.5040 C.2   288  ALA288      0.2260
    158  O          9.2550    0.8770   16.3070 O.2   288  ALA288     -0.2867
    159  CB         8.8360    3.5280   16.7720 C.3   288  ALA288      0.0290
    160  N          7.9240   -1.8180   17.3330 N.3   290  ILE290     -0.1231
    161  CA         7.0480   -2.6530   16.5010 C.3   290  ILE290      0.1692
    162  C          6.4650   -1.9030   15.2970 C.2   290  ILE290      0.2591
    163  O          5.5190   -2.3820   14.6570 O.2   290  ILE290     -0.2718
    164  CB         5.9370   -3.3800   17.3260 C.3   290  ILE290      0.0266
    165  CG1        4.9700   -2.3790   17.9800 C.3   290  ILE290      0.0019
    166  CG2        6.5780   -4.3200   18.3540 C.3   290  ILE290      0.0020
    167  CD1        3.7200   -3.0170   18.5890 C.3   290  ILE290      0.0001
    168  N          7.0440   -0.7390   14.9840 N.am  291  ALA291     -0.1980
    169  CA         6.6500    0.0340   13.8020 C.3   291  ALA291      0.1597
    170  C          7.3610   -0.5300   12.5750 C.2   291  ALA291      0.2287
    171  O          8.1670    0.1470   11.9280 O.2   291  ALA291     -0.2864
    172  CB         6.9650    1.5210   13.9810 C.3   291  ALA291      0.0319
    173  N          5.4670   -3.4530   10.8490 N.3   293  GLY293     -0.1225
    174  CA         4.4800   -4.4460   10.4240 C.3   293  GLY293      0.1811
    175  C          4.3380   -4.5010    8.9140 C.2   293  GLY293      0.2280
    176  O          4.2680   -3.4660    8.2470 O.2   293  GLY293     -0.2866
    177  N          2.3190   -2.4490   23.1680 N.3   391  THR391     -0.1203
    178  CA         1.3900   -2.2670   22.0470 C.3   391  THR391      0.1994
    179  C          1.4030   -0.8350   21.5010 C.2   391  THR391      0.2619
    180  O          0.7560   -0.5380   20.4990 O.2   391  THR391     -0.2717
    181  CB        -0.0570   -2.6230   22.4610 C.3   391  THR391      0.1784
    182  OG1       -0.3390   -2.0550   23.7470 O.3   391  THR391     -0.2211
    183  CG2       -0.2470   -4.1320   22.5320 C.3   391  THR391      0.0376
    184  N          2.1410    0.0480   22.1580 N.am  392  THR392     -0.1938
    185  CA         2.1660    1.4530   21.7620 C.3   392  THR392      0.2028
    186  C          3.5970    1.9960   21.7110 C.2   392  THR392      0.2642
    187  O          4.5590    1.2440   21.9070 O.2   392  THR392     -0.2714
    188  CB         1.2450    2.3130   22.6790 C.3   392  THR392      0.1808
    189  OG1        1.1630    3.6510   22.1670 O.3   392  THR392     -0.2208
    190  CG2        1.7620    2.3430   24.1210 C.3   392  THR392      0.0379
    191  N          3.7380    3.2910   21.4220 N.am  393  ILE393     -0.1977
    192  CA         5.0480    3.9370   21.4430 C.3   393  ILE393      0.1596
    193  C          5.5860    3.8660   22.8720 C.2   393  ILE393      0.2287
    194  O          4.8800    4.2090   23.8200 O.2   393  ILE393     -0.2864
    195  CB         4.9850    5.4000   20.9280 C.3   393  ILE393      0.0276
    196  CG1        4.6510    5.4160   19.4290 C.3   393  ILE393      0.0022
    197  CG2        6.3130    6.1280   21.1880 C.3   393  ILE393      0.0022
    198  CD1        4.2230    6.7810   18.8820 C.3   393  ILE393      0.0001
@<TRIPOS>BOND
     1    63    64    1
     2    63    60    1
     3    69    68    2
     4    64    65    1
     5    60    61    1
     6    60    59    1
     7    70    71    1
     8    70    67    1
     9    66    67    1
    10    66    61   am
    11    71    72    1
    12    68    67    1
    13    68    75   am
    14    77    78    2
    15    77    76    1
    16    61    62    2
    17    65    59    1
    18    59    55   am
    19    76    75    1
    20    76    79    1
    21    80    81    1
    22     1     2    1
    23    72    73    2
    24    72    74   am
    25    82    83    2
    26    82    81    1
    27    55    56    2
    28    55    54    1
    29    81    84    1
    30   129   130    1
    31   129   126    1
    32     3     2    1
    33     3     4    2
    34     2     5    1
    35   125   126    1
    36    54    53    1
    37    54    57    1
    38   126   127    1
    39   127   128    2
    40     5     6    1
    41    84    86    1
    42    84    85    1
    43     6     7    1
    44    57    58    1
    45   146   144    1
    46    85    87    1
    47   176   175    2
    48     7     8    1
    49    49    48    2
    50   124   122    1
    51   175   174    1
    52     8     9    2
    53   144   143    1
    54   144   145    1
    55   143   140    1
    56    48    47    1
    57   122   123    1
    58   122   121    2
    59    51    50    1
    60   131   132    1
    61     9    10    1
    62     9    11    1
    63   174   173    1
    64   139   140    1
    65   139   133   am
    66   121   120    1
    67   140   141    1
    68    47    50    1
    69    47    46    1
    70    50    52    1
    71   141   142    2
    72   135   132    1
    73   135   136    1
    74   132   133    1
    75   133   134    2
    76   138   137    1
    77   120   119    1
    78    44    43    2
    79    39    40   ar
    80    39    37   ar
    81   171   170    2
    82    46    43   am
    83    40    38   ar
    84    43    42    1
    85   170   169    1
    86   136   137    1
    87    37    35   ar
    88   119   118    1
    89    33    32    2
    90    38    36   ar
    91    42    41    1
    92    42    45    1
    93   117   116    2
    94   169   172    1
    95   169   168    1
    96    35    36   ar
    97    35    34    1
    98   118   115    1
    99    32    31    1
   100   116   115    1
   101   163   162    2
   102   147   148    1
   103   168   162   am
   104   115   114    1
   105    34    31    1
   106   162   161    1
   107    31    30    1
   108   154   152    1
   109   151   148    1
   110   151   152    1
   111   151   153    1
   112    95    93    1
   113   148   149    1
   114   149   150    2
   115    12    13    1
   116   158   157    2
   117   161   164    1
   118   161   160    1
   119    28    27    2
   120    94    93    1
   121   159   156    1
   122    30    27   am
   123    18    16    1
   124    93    92    1
   125    17    16    1
   126    27    26    1
   127   112   111    2
   128   164   165    1
   129   164   166    1
   130    13    16    1
   131    13    14    1
   132   157   156    1
   133    22    21    2
   134   111   110    1
   135   156   155    1
   136   165   167    1
   137   113   110    1
   138    19    14   am
   139    19    20    1
   140    92    89    1
   141    14    15    2
   142    26    25    1
   143    26    29    1
   144    21    20    1
   145   110   109    1
   146   198   196    1
   147   102   100    1
   148    20    23    1
   149   196   195    1
   150    24    23    1
   151    91    90    2
   152    89    90    1
   153    89    88    1
   154    90    96   am
   155    96    97    1
   156    97   100    1
   157    97    98    1
   158   100   101    1
   159   108   107    1
   160   180   179    2
   161   195   197    1
   162   195   192    1
   163    99    98    2
   164   191   192    1
   165   191   186   am
   166   192   193    1
   167   179   178    1
   168   179   184   am
   169   107   104    1
   170   186   185    1
   171   186   187    2
   172   185   184    1
   173   185   188    1
   174   178   181    1
   175   178   177    1
   176   189   188    1
   177   181   183    1
   178   181   182    1
   179   106   105    2
   180   188   190    1
   181   103   104    1
   182   104   105    1
   183   193   194    2
