@<TRIPOS>MOLECULE
tmp/2zc0B00.pdb
 136 125 0 0 0
SMALL
GASTEIGER

@<TRIPOS>ATOM
      1  N        -39.5660   58.3550  168.3330 N.3    42  GLY42      -0.1225
      2  CA       -40.0260   57.0070  168.5890 C.3    42  GLY42       0.1811
      3  C        -39.1700   56.2310  169.5790 C.2    42  GLY42       0.2280
      4  O        -38.7100   55.1250  169.3000 O.2    42  GLY42      -0.2866
      5  N        -28.5580   47.9290  165.0360 N.3   106  GLY106     -0.1210
      6  CA       -29.9890   48.1740  165.0270 C.3   106  GLY106      0.1956
      7  C        -30.5660   47.7330  163.6970 C.2   106  GLY106      0.2612
      8  O        -29.8410   47.2440  162.8280 O.2   106  GLY106     -0.2717
      9  N        -31.8730   47.8970  163.5390 N.am  107  GLY107     -0.1942
     10  CA       -32.5210   47.5410  162.2970 C.3   107  GLY107      0.2014
     11  C        -32.1300   48.5400  161.2230 C.2   107  GLY107      0.2639
     12  O        -32.2000   48.2270  160.0350 O.2   107  GLY107     -0.2714
     13  N        -31.7190   49.7390  161.6460 N.am  108  THR108     -0.1950
     14  CA       -31.2810   50.8010  160.7300 C.3   108  THR108      0.1897
     15  C        -30.1140   50.2570  159.9150 C.2   108  THR108      0.2313
     16  O        -30.1420   50.2450  158.6750 O.2   108  THR108     -0.2863
     17  CB       -30.7920   52.0640  161.5090 C.3   108  THR108      0.1794
     18  OG1      -31.9010   52.6710  162.1860 O.3   108  THR108     -0.2208
     19  CG2      -30.1590   53.0880  160.5640 C.3   108  THR108      0.0378
     20  N        -31.0890   47.4700  157.5090 N.3   111  LEU111     -0.1245
     21  CA       -31.6730   47.9560  156.2660 C.3   111  LEU111      0.1561
     22  C        -30.6160   48.5470  155.3270 C.2   111  LEU111      0.2260
     23  O        -30.6880   48.3650  154.1120 O.2   111  LEU111     -0.2867
     24  CB       -32.7530   49.0230  156.5440 C.3   111  LEU111      0.0270
     25  CG       -34.1950   48.6780  156.9450 C.3   111  LEU111      0.0019
     26  CD1      -34.5210   47.2510  156.5730 C.3   111  LEU111      0.0001
     27  CD2      -34.4020   48.9080  158.4110 C.3   111  LEU111      0.0001
     28  N        -41.8140   54.0990  156.5960 N.3   132  TYR132     -0.1241
     29  CA       -40.8330   54.6410  157.5390 C.3   132  TYR132      0.1605
     30  C        -39.8300   55.5720  156.8280 C.2   132  TYR132      0.2264
     31  O        -39.0090   55.1170  156.0410 O.2   132  TYR132     -0.2867
     32  CB       -40.0710   53.4850  158.2180 C.3   132  TYR132      0.0534
     33  CG       -39.0510   53.9240  159.2520 C.ar  132  TYR132     -0.0201
     34  CD1      -37.9040   53.1710  159.4960 C.ar  132  TYR132     -0.0009
     35  CD2      -39.2250   55.1020  159.9770 C.ar  132  TYR132     -0.0009
     36  CE1      -36.9590   53.5820  160.4260 C.ar  132  TYR132      0.0417
     37  CE2      -38.2860   55.5160  160.9100 C.ar  132  TYR132      0.0417
     38  CZ       -37.1570   54.7550  161.1260 C.ar  132  TYR132      0.1957
     39  OH       -36.2300   55.1880  162.0420 O.3   132  TYR132     -0.2866
     40  N        -43.5480   46.8980  156.4740 N.3   181  ILE181     -0.1245
     41  CA       -43.5160   46.9140  157.9380 C.3   181  ILE181      0.1561
     42  C        -44.9180   46.4090  158.3110 C.2   181  ILE181      0.2260
     43  O        -45.8040   47.1890  158.6590 O.2   181  ILE181     -0.2867
     44  CB       -43.3270   48.3550  158.4620 C.3   181  ILE181      0.0252
     45  CG1      -42.0860   48.9730  157.8150 C.3   181  ILE181      0.0019
     46  CG2      -43.2060   48.3570  159.9830 C.3   181  ILE181      0.0019
     47  CD1      -42.0350   50.4840  157.9010 C.3   181  ILE181      0.0001
     48  N        -44.6780   52.1900  161.1360 N.3   186  ASN186     -0.1240
     49  CA       -44.2010   53.5350  161.4530 C.3   186  ASN186      0.1653
     50  C        -44.3150   54.0990  160.0520 C.2   186  ASN186      0.2266
     51  O        -43.6450   53.6050  159.1330 O.2   186  ASN186     -0.2867
     52  CB       -42.7310   53.4970  161.8820 C.3   186  ASN186      0.1155
     53  CG       -42.1790   54.8750  162.2580 C.2   186  ASN186      0.2627
     54  OD1      -42.7390   55.9170  161.9040 O.2   186  ASN186     -0.2716
     55  ND2      -41.0550   54.8770  162.9670 N.am  186  ASN186     -0.0877
     56  N        -39.7180   44.2520  157.8550 N.3   214  ASP214     -0.1239
     57  CA       -39.2280   45.0160  158.9910 C.3   214  ASP214      0.1674
     58  C        -40.0750   44.5800  160.1800 C.2   214  ASP214      0.2266
     59  O        -41.2790   44.7980  160.2050 O.2   214  ASP214     -0.2867
     60  CB       -39.3690   46.5080  158.6840 C.3   214  ASP214      0.1410
     61  CG       -38.7570   47.3860  159.7410 C.2   214  ASP214      0.3668
     62  OD1      -38.3210   48.4940  159.3820 O.co2 214  ASP214     -0.2456
     63  OD2      -38.7200   46.9940  160.9270 O.co2 214  ASP214     -0.2456
     64  N        -39.5130   45.5160  163.4050 N.3   216  ALA216     -0.1231
     65  CA       -39.2480   46.4290  164.5130 C.3   216  ALA216      0.1694
     66  C        -40.2410   46.4130  165.6820 C.2   216  ALA216      0.2592
     67  O        -39.8220   46.4840  166.8450 O.2   216  ALA216     -0.2718
     68  CB       -39.1210   47.8590  163.9770 C.3   216  ALA216      0.0304
     69  N        -41.5380   46.3280  165.3830 N.am  217  TYR217     -0.1976
     70  CA       -42.5760   46.3610  166.4160 C.3   217  TYR217      0.1639
     71  C        -43.3160   45.0400  166.6400 C.2   217  TYR217      0.2290
     72  O        -44.4300   45.0300  167.1540 O.2   217  TYR217     -0.2864
     73  CB       -43.6120   47.4660  166.0900 C.3   217  TYR217      0.0560
     74  CG       -42.9790   48.8120  165.8550 C.ar  217  TYR217     -0.0198
     75  CD1      -42.6580   49.2430  164.5670 C.ar  217  TYR217     -0.0009
     76  CD2      -42.6000   49.6150  166.9300 C.ar  217  TYR217     -0.0009
     77  CE1      -41.9640   50.4440  164.3610 C.ar  217  TYR217      0.0417
     78  CE2      -41.9040   50.8130  166.7380 C.ar  217  TYR217      0.0417
     79  CZ       -41.5870   51.2180  165.4560 C.ar  217  TYR217      0.1957
     80  OH       -40.8740   52.3770  165.2830 O.3   217  TYR217     -0.2866
     81  N        -34.9590   44.0760  165.2410 N.3   244  THR244     -0.1218
     82  CA       -34.2230   44.8120  166.2560 C.3   244  THR244      0.1862
     83  C        -34.8020   44.5860  167.6530 C.2   244  THR244      0.2287
     84  O        -35.9510   44.1690  167.7980 O.2   244  THR244     -0.2866
     85  CB       -34.2420   46.3080  165.9320 C.3   244  THR244      0.1770
     86  OG1      -33.6210   47.0420  166.9960 O.3   244  THR244     -0.2211
     87  CG2      -35.6820   46.7890  165.7370 C.3   244  THR244      0.0375
     88  N        -34.3490   47.1150  169.8710 N.3   246  SER246     -0.1202
     89  CA       -34.3300   48.4620  170.3880 C.3   246  SER246      0.2020
     90  C        -35.6060   48.8910  171.1080 C.2   246  SER246      0.2618
     91  O        -35.5340   49.6330  172.0850 O.2   246  SER246     -0.2717
     92  CB       -33.9810   49.4530  169.2670 C.3   246  SER246      0.2103
     93  OG       -34.9330   49.4040  168.2290 O.3   246  SER246     -0.2182
     94  N        -36.7620   48.4210  170.6470 N.am  247  LYS247     -0.1979
     95  CA       -38.0230   48.7830  171.2830 C.3   247  LYS247      0.1596
     96  C        -38.2700   47.9210  172.5260 C.2   247  LYS247      0.2287
     97  O        -39.2680   48.0840  173.2270 O.2   247  LYS247     -0.2864
     98  CB       -39.1830   48.6300  170.2900 C.3   247  LYS247      0.0298
     99  CG       -38.9940   49.3610  168.9570 C.3   247  LYS247      0.0038
    100  CD       -38.7450   50.8590  169.1460 C.3   247  LYS247      0.0206
    101  CE       -38.6070   51.5840  167.8000 C.3   247  LYS247      0.1093
    102  NZ       -37.4590   51.0880  166.9960 N.3   247  LYS247     -0.1314
    103  N        -33.5820   51.5660  172.8280 N.3   251  THR251     -0.1218
    104  CA       -33.2860   52.0310  171.4980 C.3   251  THR251      0.1862
    105  C        -31.8590   52.5480  171.2820 C.2   251  THR251      0.2287
    106  O        -31.4020   52.6800  170.1460 O.2   251  THR251     -0.2866
    107  CB       -34.3400   53.0830  171.1480 C.3   251  THR251      0.1770
    108  OG1      -34.6520   53.0120  169.7580 O.3   251  THR251     -0.2211
    109  CG2      -33.8780   54.4520  171.5290 C.3   251  THR251      0.0375
    110  N        -28.2830   49.8340  170.0550 N.3   254  ARG254     -0.1231
    111  CA       -27.9420   49.5470  168.6610 C.3   254  ARG254      0.1694
    112  C        -27.8000   48.0450  168.4120 C.2   254  ARG254      0.2591
    113  O        -26.7740   47.5930  167.8910 O.2   254  ARG254     -0.2718
    114  CB       -26.6430   50.2460  168.2510 C.3   254  ARG254      0.0321
    115  CG       -26.5270   51.7230  168.6420 C.3   254  ARG254      0.0489
    116  CD       -27.4090   52.6090  167.7740 C.3   254  ARG254      0.2205
    117  NE       -28.7990   52.2110  167.8990 N.pl3 254  ARG254     -0.0865
    118  CZ       -29.6230   52.0280  166.8760 C.cat 254  ARG254      0.5346
    119  NH1      -30.8720   51.6650  167.1100 N.pl3 254  ARG254      0.1354
    120  NH2      -29.2080   52.2120  165.6300 N.pl3 254  ARG254      0.1354
    121  N        -28.8130   47.2720  168.8070 N.am  255  ILE255     -0.1980
    122  CA       -28.7890   45.8320  168.5880 C.3   255  ILE255      0.1595
    123  C        -29.9240   45.4410  167.6420 C.2   255  ILE255      0.2287
    124  O        -31.1070   45.5260  167.9920 O.2   255  ILE255     -0.2864
    125  CB       -28.9570   45.0280  169.9180 C.3   255  ILE255      0.0276
    126  CG1      -27.7230   45.2120  170.8260 C.3   255  ILE255      0.0022
    127  CG2      -29.1660   43.5470  169.6000 C.3   255  ILE255      0.0022
    128  CD1      -26.4100   44.6380  170.2750 C.3   255  ILE255      0.0001
    129  N        -46.2680   51.9940  168.4040 N.3   335  MET335     -0.1245
    130  CA       -46.2420   53.1050  169.3320 C.3   335  MET335      0.1570
    131  C        -46.6350   54.4060  168.6860 C.2   335  MET335      0.2261
    132  O        -46.3670   55.4810  169.2180 O.2   335  MET335     -0.2867
    133  CB       -44.8420   53.2300  169.9410 C.3   335  MET335      0.0387
    134  CG       -43.7370   53.2660  168.9200 C.3   335  MET335      0.0595
    135  SD       -42.0690   53.1910  169.6570 S.3   335  MET335     -0.1393
    136  CE       -41.3140   54.3170  168.6470 C.3   335  MET335      0.0692
@<TRIPOS>BOND
     1    23    22    2
     2    22    21    1
     3    31    30    2
     4    21    24    1
     5    21    20    1
     6    40    41    1
     7    24    25    1
     8    26    25    1
     9    28    29    1
    10    30    29    1
    11    25    27    1
    12    29    32    1
    13    45    47    1
    14    45    44    1
    15    56    57    1
    16    41    42    1
    17    41    44    1
    18    32    33    1
    19    42    43    2
    20    44    46    1
    21    16    15    2
    22    60    57    1
    23    60    61    1
    24    57    58    1
    25    51    50    2
    26    33    34   ar
    27    33    35   ar
    28    62    61   ar
    29    34    36   ar
    30    61    63   ar
    31    15    14    1
    32    35    37   ar
    33    12    11    2
    34    50    49    1
    35    58    59    2
    36    36    38   ar
    37    19    17    1
    38    14    17    1
    39    14    13    1
    40    37    38   ar
    41    38    39    1
    42    48    49    1
    43    11    13   am
    44    11    10    1
    45    49    52    1
    46    17    18    1
    47    52    53    1
    48    54    53    2
    49    53    55   am
    50    10     9    1
    51     8     7    2
    52    64    65    1
    53     9     7   am
    54     7     6    1
    55    68    65    1
    56    77    75   ar
    57    77    79   ar
    58    65    66    1
    59    75    74   ar
    60     6     5    1
    61    81    82    1
    62    80    79    1
    63    69    66   am
    64    69    70    1
    65    79    78   ar
    66   120   118    1
    67    66    67    2
    68    87    85    1
    69    74    73    1
    70    74    76   ar
    71    85    82    1
    72    85    86    1
    73    73    70    1
    74    82    83    1
    75    70    71    1
    76    71    72    2
    77    78    76   ar
    78   118   119    1
    79   118   117    2
    80   102   101    1
    81   123   124    2
    82   123   122    1
    83    83    84    2
    84   116   117    1
    85   116   115    1
    86   101   100    1
    87   113   112    2
    88    93    92    1
    89   114   115    1
    90   114   111    1
    91     1     2    1
    92   129   130    1
    93   112   111    1
    94   112   121   am
    95   122   121    1
    96   122   125    1
    97     2     3    1
    98   136   135    1
    99   111   110    1
   100   131   132    2
   101   131   130    1
   102   134   135    1
   103   134   133    1
   104    99   100    1
   105    99    98    1
   106    92    89    1
   107     4     3    2
   108   130   133    1
   109   127   125    1
   110   108   107    1
   111    88    89    1
   112   125   126    1
   113   106   105    2
   114   128   126    1
   115    98    95    1
   116    89    90    1
   117    94    90   am
   118    94    95    1
   119    90    91    2
   120   107   104    1
   121   107   109    1
   122   105   104    1
   123    95    96    1
   124   104   103    1
   125    96    97    2
