@<TRIPOS>MOLECULE
tmp/2zc5B00.pdb
 127 121 0 0 0
SMALL
GASTEIGER

@<TRIPOS>ATOM
      1  N         19.1690   13.0560   13.3380 N.3   103  GLY103     -0.1210
      2  CA        17.8200   12.9010   12.8000 C.3   103  GLY103      0.1956
      3  C         17.6440   11.9880   11.6050 C.2   103  GLY103      0.2612
      4  O         17.9750   10.8050   11.6550 O.2   103  GLY103     -0.2717
      5  N         17.1270   12.5590   10.5230 N.am  104  SER104     -0.1952
      6  CA        16.7130   11.7950    9.3470 C.3   104  SER104      0.1924
      7  C         17.8570   11.0970    8.6080 C.2   104  SER104      0.2314
      8  O         17.6420   10.0590    7.9840 O.2   104  SER104     -0.2863
      9  CB        15.9300   12.7200    8.4000 C.3   104  SER104      0.2116
     10  OG        14.7330   13.2380    9.0500 O.3   104  SER104     -0.2180
     11  N          6.8220   16.0630    9.8510 N.3   145  TRP145     -0.1241
     12  CA         7.1140   17.4950   10.0000 C.3   145  TRP145      0.1605
     13  C          5.8960   18.3610    9.6830 C.2   145  TRP145      0.2264
     14  O          5.6520   19.3610   10.3530 O.2   145  TRP145     -0.2867
     15  CB         8.3060   17.9190    9.1270 C.3   145  TRP145      0.0550
     16  CG         7.9870   18.0710    7.6520 C.ar  145  TRP145      0.0003
     17  CD1        8.0820   17.1070    6.6870 C.ar  145  TRP145      0.0946
     18  CD2        7.5250   19.2580    6.9890 C.ar  145  TRP145      0.0152
     19  NE1        7.7100   17.6180    5.4680 N.ar  145  TRP145     -0.2442
     20  CE2        7.3580   18.9340    5.6230 C.ar  145  TRP145      0.0810
     21  CE3        7.2300   20.5630    7.4170 C.ar  145  TRP145      0.0012
     22  CZ2        6.9110   19.8700    4.6790 C.ar  145  TRP145      0.0191
     23  CZ3        6.7830   21.4910    6.4780 C.ar  145  TRP145      0.0001
     24  CH2        6.6320   21.1380    5.1240 C.ar  145  TRP145      0.0015
     25  N         10.9480   12.6220    0.2560 N.3   161  GLN161     -0.1231
     26  CA        10.1940   13.6180    1.0140 C.3   161  GLN161      0.1698
     27  C         10.4550   13.4640    2.5000 C.2   161  GLN161      0.2592
     28  O         10.0830   14.3330    3.2900 O.2   161  GLN161     -0.2718
     29  CB         8.6950   13.4960    0.7450 C.3   161  GLN161      0.0381
     30  CG         8.2870   13.7300   -0.6970 C.3   161  GLN161      0.0905
     31  CD         8.7280   15.0800   -1.2250 C.2   161  GLN161      0.2608
     32  OE1        8.2500   16.1260   -0.7820 O.2   161  GLN161     -0.2717
     33  NE2        9.6420   15.0620   -2.1870 N.am  161  GLN161     -0.0878
     34  N         11.0870   12.3470    2.8640 N.am  162  SER162     -0.1952
     35  CA        11.5210   12.0540    4.2380 C.3   162  SER162      0.1924
     36  C         10.3580   11.9800    5.2320 C.2   162  SER162      0.2314
     37  O         10.2050   12.8310    6.1130 O.2   162  SER162     -0.2863
     38  CB        12.5950   13.0530    4.6970 C.3   162  SER162      0.2116
     39  OG        13.1340   12.6960    5.9590 O.3   162  SER162     -0.2180
     40  N          8.3460   10.1850    8.3070 N.3   164  ASN164     -0.1240
     41  CA         8.7440    9.4660    9.5070 C.3   164  ASN164      0.1653
     42  C          7.9860    8.1660    9.7170 C.2   164  ASN164      0.2266
     43  O          8.5460    7.2060   10.2400 O.2   164  ASN164     -0.2867
     44  CB         8.6540   10.3700   10.7410 C.3   164  ASN164      0.1155
     45  CG         9.6380   11.5380   10.6860 C.2   164  ASN164      0.2627
     46  OD1       10.7220   11.4380   10.1050 O.2   164  ASN164     -0.2716
     47  ND2        9.2580   12.6530   11.2940 N.am  164  ASN164     -0.0877
     48  N         14.5340    7.4770   13.4690 N.3   199  ILE199     -0.1245
     49  CA        14.5450    8.8690   13.0040 C.3   199  ILE199      0.1561
     50  C         15.4510    9.7860   13.8440 C.2   199  ILE199      0.2260
     51  O         15.3020   11.0100   13.8160 O.2   199  ILE199     -0.2867
     52  CB        13.1050    9.4790   12.9020 C.3   199  ILE199      0.0252
     53  CG1       12.3870    9.4520   14.2620 C.3   199  ILE199      0.0019
     54  CG2       12.2910    8.7920   11.7950 C.3   199  ILE199      0.0019
     55  CD1       11.2650   10.4770   14.4060 C.3   199  ILE199      0.0001
     56  N         13.6970   16.4280   -4.2410 N.3   276  GLY276     -0.1210
     57  CA        13.2390   16.6510   -2.8790 C.3   276  GLY276      0.1956
     58  C         13.9860   17.7170   -2.1140 C.2   276  GLY276      0.2612
     59  O         14.0640   18.8760   -2.5350 O.2   276  GLY276     -0.2717
     60  N         14.5590   17.2870   -0.9940 N.am  277  THR277     -0.1952
     61  CA        15.0390   18.1740    0.0700 C.3   277  THR277      0.1897
     62  C         16.3630   18.9040   -0.2380 C.2   277  THR277      0.2313
     63  O         16.3970   20.1440   -0.3200 O.2   277  THR277     -0.2863
     64  CB        15.1210   17.3980    1.4290 C.3   277  THR277      0.1794
     65  OG1       15.9690   16.2500    1.2790 O.3   277  THR277     -0.2208
     66  CG2       13.7400   16.8950    1.8430 C.3   277  THR277      0.0378
     67  N         21.3420   12.4340    1.9310 N.3   291  LYS291     -0.1231
     68  CA        20.1280   12.5810    2.7220 C.3   291  LYS291      0.1693
     69  C         20.2560   13.8070    3.6150 C.2   291  LYS291      0.2593
     70  O         21.3210   14.0650    4.1790 O.2   291  LYS291     -0.2718
     71  CB        19.8700   11.3200    3.5600 C.3   291  LYS291      0.0285
     72  CG        18.6540   11.3700    4.5140 C.3   291  LYS291      0.0035
     73  CD        17.3210   11.0440    3.8280 C.3   291  LYS291      0.0206
     74  CE        16.4850   12.2850    3.5530 C.3   291  LYS291      0.1093
     75  NZ        15.8400   12.7810    4.7940 N.3   291  LYS291     -0.1314
     76  N         19.1690   14.5640    3.7220 N.am  292  THR292     -0.1939
     77  CA        19.1210   15.7350    4.5900 C.3   292  THR292      0.2028
     78  C         18.6090   15.3590    5.9710 C.2   292  THR292      0.2643
     79  O         18.0290   14.2900    6.1620 O.2   292  THR292     -0.2714
     80  CB        18.2000   16.8120    4.0270 C.3   292  THR292      0.1808
     81  OG1       16.9590   16.2080    3.6490 O.3   292  THR292     -0.2208
     82  CG2       18.8320   17.4750    2.8220 C.3   292  THR292      0.0379
     83  N         18.8230   16.2520    6.9300 N.am  293  GLY293     -0.1939
     84  CA        18.3910   16.0270    8.2960 C.3   293  GLY293      0.2014
     85  C         18.0460   17.3210    8.9940 C.2   293  GLY293      0.2640
     86  O         18.7900   18.2980    8.9150 O.2   293  GLY293     -0.2714
     87  N         16.9040   17.3210    9.6720 N.am  294  THR294     -0.1936
     88  CA        16.4580   18.4630   10.4600 C.3   294  THR294      0.2028
     89  C         15.8750   17.9330   11.7570 C.2   294  THR294      0.2643
     90  O         14.6870   17.6210   11.8190 O.2   294  THR294     -0.2714
     91  CB        15.3780   19.2880    9.7180 C.3   294  THR294      0.1808
     92  OG1       15.6820   19.3490    8.3170 O.3   294  THR294     -0.2208
     93  CG2       15.3000   20.6960   10.2760 C.3   294  THR294      0.0379
     94  N         16.7130   17.8200   12.7850 N.am  295  SER295     -0.1935
     95  CA        16.2660   17.3570   14.1010 C.3   295  SER295      0.2055
     96  C         15.2520   18.3310   14.7300 C.2   295  SER295      0.2643
     97  O         15.0290   19.4320   14.2070 O.2   295  SER295     -0.2714
     98  CB        17.4630   17.1290   15.0320 C.3   295  SER295      0.2130
     99  OG        18.0220   18.3500   15.4790 O.3   295  SER295     -0.2179
    100  N         14.6300   17.9230   15.8350 N.am  296  ASN296     -0.1971
    101  CA        13.6640   18.7870   16.5170 C.3   296  ASN296      0.1688
    102  C         13.8950   18.9090   18.0220 C.2   296  ASN296      0.2292
    103  O         14.7580   18.2360   18.5790 O.2   296  ASN296     -0.2864
    104  CB        12.2240   18.3570   16.2050 C.3   296  ASN296      0.1181
    105  CG        11.9670   16.8970   16.5150 C.2   296  ASN296      0.2629
    106  OD1       12.0770   16.4640   17.6610 O.2   296  ASN296     -0.2716
    107  ND2       11.6100   16.1290   15.4920 N.am  296  ASN296     -0.0877
    108  N          9.2890   27.5600   11.4530 N.3   311  PHE311     -0.1241
    109  CA         9.9860   26.2900   11.3290 C.3   311  PHE311      0.1605
    110  C         11.4070   26.4770   11.8560 C.2   311  PHE311      0.2264
    111  O         12.2130   27.2040   11.2680 O.2   311  PHE311     -0.2867
    112  CB         9.9950   25.8380    9.8710 C.3   311  PHE311      0.0534
    113  CG        10.4090   24.4090    9.6750 C.ar  311  PHE311     -0.0203
    114  CD1        9.4590   23.3880    9.7020 C.ar  311  PHE311     -0.0042
    115  CD2       11.7450   24.0820    9.4390 C.ar  311  PHE311     -0.0042
    116  CE1        9.8360   22.0550    9.5090 C.ar  311  PHE311     -0.0003
    117  CE2       12.1370   22.7530    9.2470 C.ar  311  PHE311     -0.0003
    118  CZ        11.1810   21.7360    9.2820 C.ar  311  PHE311     -0.0000
    119  N         20.8190   21.0350   11.7640 N.3   316  GLU316     -0.1245
    120  CA        20.5420   20.7520   10.3530 C.3   316  GLU316      0.1567
    121  C         21.7110   19.9620    9.7910 C.2   316  GLU316      0.2260
    122  O         22.8670   20.3010   10.0450 O.2   316  GLU316     -0.2867
    123  CB        20.3190   22.0430    9.5590 C.3   316  GLU316      0.0388
    124  CG        20.2710   21.8750    8.0350 C.3   316  GLU316      0.1160
    125  CD        19.0340   21.1440    7.5360 C.2   316  GLU316      0.3649
    126  OE1       17.9340   21.3930    8.0760 O.co2 316  GLU316     -0.2457
    127  OE2       19.1580   20.3270    6.5930 O.co2 316  GLU316     -0.2457
@<TRIPOS>BOND
     1    56    57    1
     2    57    58    1
     3    59    58    2
     4    33    31   am
     5    58    60   am
     6    31    32    2
     7    31    30    1
     8    60    61    1
     9    30    29    1
    10    63    62    2
    11    62    61    1
    12    61    64    1
    13    25    26    1
    14    29    26    1
    15    26    27    1
    16    65    64    1
    17    64    66    1
    18    67    68    1
    19    27    34   am
    20    27    28    2
    21    68    71    1
    22    68    69    1
    23    82    80    1
    24    34    35    1
    25    74    73    1
    26    74    75    1
    27    71    72    1
    28    69    76   am
    29    69    70    2
    30    81    80    1
    31    76    77    1
    32    73    72    1
    33    80    77    1
    34    35    38    1
    35    35    36    1
    36    77    78    1
    37    22    24   ar
    38    22    20   ar
    39    38    39    1
    40    24    23   ar
    41    36    37    2
    42    19    20   ar
    43    19    17   ar
    44    20    18   ar
    45    78    79    2
    46    78    83   am
    47    23    21   ar
    48   127   125   ar
    49    17    16   ar
    50    83    84    1
    51    18    21   ar
    52    18    16   ar
    53   125   124    1
    54   125   126   ar
    55    16    15    1
    56     8     7    2
    57   124   123    1
    58    84    85    1
    59    40    41    1
    60    92    91    1
    61     9    10    1
    62     9     6    1
    63     7     6    1
    64    86    85    2
    65    85    87   am
    66    15    12    1
    67   117   118   ar
    68   117   115   ar
    69   118   116   ar
    70     6     5    1
    71   115   113   ar
    72    41    42    1
    73    41    44    1
    74   116   114   ar
    75   123   120    1
    76    87    88    1
    77   113   114   ar
    78   113   112    1
    79    13    12    1
    80    13    14    2
    81    42    43    2
    82    91    93    1
    83    91    88    1
    84   121   122    2
    85   121   120    1
    86    11    12    1
    87   112   109    1
    88    46    45    2
    89   120   119    1
    90    88    89    1
    91     5     3   am
    92    45    44    1
    93    45    47   am
    94   111   110    2
    95   109   108    1
    96   109   110    1
    97     3     4    2
    98     3     2    1
    99    89    90    2
   100    89    94   am
   101    54    52    1
   102    94    95    1
   103     2     1    1
   104    52    49    1
   105    52    53    1
   106    49    48    1
   107    49    50    1
   108    51    50    2
   109    95    96    1
   110    95    98    1
   111    97    96    2
   112    53    55    1
   113    96   100   am
   114    98    99    1
   115   107   105   am
   116   100   101    1
   117   104   105    1
   118   104   101    1
   119   105   106    2
   120   101   102    1
   121   102   103    2
