@<TRIPOS>MOLECULE
tmp/2zc6B00.pdb
 123 117 0 0 0
SMALL
GASTEIGER

@<TRIPOS>ATOM
      1  N         19.2920   12.9940   13.0900 N.3   103  GLY103     -0.1210
      2  CA        17.9540   12.9380   12.5040 C.3   103  GLY103      0.1956
      3  C         17.7630   11.9990   11.3280 C.2   103  GLY103      0.2612
      4  O         18.0520   10.8050   11.4240 O.2   103  GLY103     -0.2717
      5  N         17.2950   12.5540   10.2110 N.am  104  SER104     -0.1952
      6  CA        16.8780   11.7610    9.0390 C.3   104  SER104      0.1924
      7  C         18.0270   11.0930    8.2770 C.2   104  SER104      0.2314
      8  O         17.7910   10.2130    7.4430 O.2   104  SER104     -0.2863
      9  CB        16.0020   12.5570    8.0490 C.3   104  SER104      0.2116
     10  OG        14.7740   13.0910    8.6430 O.3   104  SER104     -0.2180
     11  N          6.7790   15.7930    9.2050 N.3   145  TRP145     -0.1241
     12  CA         7.1300   17.1940    9.4460 C.3   145  TRP145      0.1605
     13  C          5.9490   18.1320    9.2350 C.2   145  TRP145      0.2264
     14  O          5.7870   19.1000    9.9720 O.2   145  TRP145     -0.2867
     15  CB         8.3340   17.6250    8.5900 C.3   145  TRP145      0.0550
     16  CG         8.0470   17.8520    7.1300 C.ar  145  TRP145      0.0003
     17  CD1        8.1310   16.9310    6.1200 C.ar  145  TRP145      0.0946
     18  CD2        7.6570   19.0840    6.5170 C.ar  145  TRP145      0.0152
     19  NE1        7.8050   17.5130    4.9190 N.ar  145  TRP145     -0.2442
     20  CE2        7.5070   18.8330    5.1320 C.ar  145  TRP145      0.0810
     21  CE3        7.4090   20.3770    7.0040 C.ar  145  TRP145      0.0012
     22  CZ2        7.1190   19.8270    4.2260 C.ar  145  TRP145      0.0191
     23  CZ3        7.0210   21.3670    6.1030 C.ar  145  TRP145      0.0001
     24  CH2        6.8810   21.0840    4.7280 C.ar  145  TRP145      0.0015
     25  N         11.2890   12.3410   -0.1600 N.3   161  GLN161     -0.1231
     26  CA        10.5370   13.3520    0.5770 C.3   161  GLN161      0.1698
     27  C         10.8310   13.3200    2.0690 C.2   161  GLN161      0.2592
     28  O         10.4000   14.2060    2.8100 O.2   161  GLN161     -0.2718
     29  CB         9.0390   13.1740    0.3410 C.3   161  GLN161      0.0381
     30  CG         8.6060   13.5810   -1.0500 C.3   161  GLN161      0.0905
     31  CD         9.0800   14.9710   -1.4030 C.2   161  GLN161      0.2608
     32  OE1        8.5890   15.9600   -0.8560 O.2   161  GLN161     -0.2717
     33  NE2       10.0460   15.0560   -2.3170 N.am  161  GLN161     -0.0878
     34  N         11.5670   12.2920    2.4890 N.am  162  SER162     -0.1952
     35  CA        11.9460   12.0690    3.8840 C.3   162  SER162      0.1924
     36  C         10.7410   11.9710    4.8120 C.2   162  SER162      0.2314
     37  O         10.5890   12.7600    5.7450 O.2   162  SER162     -0.2863
     38  CB        12.9140   13.1450    4.3720 C.3   162  SER162      0.2116
     39  OG        13.5740   12.7130    5.5430 O.3   162  SER162     -0.2180
     40  N          8.4500   10.1110    7.6880 N.3   164  ASN164     -0.1240
     41  CA         8.8210    9.4210    8.9150 C.3   164  ASN164      0.1653
     42  C          8.1360    8.0760    9.1150 C.2   164  ASN164      0.2266
     43  O          8.7940    7.0910    9.4730 O.2   164  ASN164     -0.2867
     44  CB         8.6550   10.3340   10.1390 C.3   164  ASN164      0.1155
     45  CG         9.7890   11.3490   10.2710 C.2   164  ASN164      0.2627
     46  OD1       10.8660   11.1860    9.6860 O.2   164  ASN164     -0.2716
     47  ND2        9.5520   12.3980   11.0480 N.am  164  ASN164     -0.0877
     48  N         14.5930    7.4650   13.0540 N.3   199  ILE199     -0.1245
     49  CA        14.6610    8.8530   12.6090 C.3   199  ILE199      0.1561
     50  C         15.5350    9.7210   13.5250 C.2   199  ILE199      0.2260
     51  O         15.3990   10.9460   13.5510 O.2   199  ILE199     -0.2867
     52  CB        13.2400    9.4630   12.4430 C.3   199  ILE199      0.0252
     53  CG1       12.4610    9.4270   13.7710 C.3   199  ILE199      0.0019
     54  CG2       12.4810    8.7300   11.3340 C.3   199  ILE199      0.0019
     55  CD1       11.2570   10.3600   13.8340 C.3   199  ILE199      0.0001
     56  N         14.5700   16.7260   -1.0020 N.3   277  THR277     -0.1218
     57  CA        14.9430   17.6810    0.0390 C.3   277  THR277      0.1862
     58  C         16.3880   18.1600   -0.0490 C.2   277  THR277      0.2287
     59  O         16.7860   19.0620    0.6890 O.2   277  THR277     -0.2866
     60  CB        14.7370   17.0750    1.4360 C.3   277  THR277      0.1770
     61  OG1       15.2720   15.7470    1.4570 O.3   277  THR277     -0.2211
     62  CG2       13.2650   17.0130    1.7840 C.3   277  THR277      0.0375
     63  N         21.6520   12.3600    1.6490 N.3   291  LYS291     -0.1231
     64  CA        20.4490   12.4770    2.4660 C.3   291  LYS291      0.1693
     65  C         20.5350   13.7140    3.3620 C.2   291  LYS291      0.2593
     66  O         21.5790   13.9910    3.9600 O.2   291  LYS291     -0.2718
     67  CB        20.2550   11.2070    3.2990 C.3   291  LYS291      0.0285
     68  CG        19.0950   11.2320    4.3050 C.3   291  LYS291      0.0035
     69  CD        17.7870   10.6980    3.7270 C.3   291  LYS291      0.0206
     70  CE        16.8010   11.8090    3.4270 C.3   291  LYS291      0.1093
     71  NZ        16.2350   12.3930    4.6670 N.3   291  LYS291     -0.1314
     72  N         19.4360   14.4610    3.4290 N.am  292  THR292     -0.1939
     73  CA        19.3270   15.6070    4.3280 C.3   292  THR292      0.2028
     74  C         18.8450   15.1710    5.7110 C.2   292  THR292      0.2643
     75  O         18.4600   14.0170    5.9260 O.2   292  THR292     -0.2714
     76  CB        18.3540   16.6690    3.7910 C.3   292  THR292      0.1808
     77  OG1       17.1470   16.0310    3.3750 O.3   292  THR292     -0.2208
     78  CG2       18.9540   17.4270    2.6190 C.3   292  THR292      0.0379
     79  N         18.8680   16.1120    6.6450 N.am  293  GLY293     -0.1939
     80  CA        18.4570   15.8520    8.0060 C.3   293  GLY293      0.2014
     81  C         18.1520   17.1340    8.7440 C.2   293  GLY293      0.2640
     82  O         18.9180   18.0880    8.7090 O.2   293  GLY293     -0.2714
     83  N         17.0080   17.1450    9.4100 N.am  294  THR294     -0.1936
     84  CA        16.6040   18.2510   10.2540 C.3   294  THR294      0.2028
     85  C         16.0580   17.6390   11.5370 C.2   294  THR294      0.2643
     86  O         14.9490   17.1010   11.5490 O.2   294  THR294     -0.2714
     87  CB        15.5400   19.1240    9.5410 C.3   294  THR294      0.1808
     88  OG1       16.1030   19.6750    8.3390 O.3   294  THR294     -0.2208
     89  CG2       15.0720   20.2570   10.4230 C.3   294  THR294      0.0379
     90  N         16.8520   17.6900   12.6020 N.am  295  SER295     -0.1935
     91  CA        16.3970   17.2310   13.9160 C.3   295  SER295      0.2055
     92  C         15.3690   18.2070   14.4930 C.2   295  SER295      0.2643
     93  O         15.1430   19.2820   13.9370 O.2   295  SER295     -0.2714
     94  CB        17.5760   17.0670   14.8760 C.3   295  SER295      0.2130
     95  OG        18.0530   18.3240   15.3180 O.3   295  SER295     -0.2179
     96  N         14.7420   17.8340   15.6030 N.am  296  ASN296     -0.1971
     97  CA        13.7310   18.6930   16.2210 C.3   296  ASN296      0.1688
     98  C         13.8440   18.7620   17.7350 C.2   296  ASN296      0.2292
     99  O         14.5250   17.9480   18.3590 O.2   296  ASN296     -0.2864
    100  CB        12.3260   18.2550   15.8040 C.3   296  ASN296      0.1181
    101  CG        12.0960   16.7830   16.0250 C.2   296  ASN296      0.2629
    102  OD1       11.7450   16.3550   17.1250 O.2   296  ASN296     -0.2716
    103  ND2       12.3130   15.9870   14.9780 N.am  296  ASN296     -0.0877
    104  N          9.4900   27.5100   11.1120 N.3   311  PHE311     -0.1241
    105  CA        10.2180   26.2600   11.0020 C.3   311  PHE311      0.1605
    106  C         11.6150   26.4430   11.5890 C.2   311  PHE311      0.2264
    107  O         12.4080   27.2460   11.0950 O.2   311  PHE311     -0.2867
    108  CB        10.3010   25.8300    9.5380 C.3   311  PHE311      0.0534
    109  CG        10.6120   24.3770    9.3470 C.ar  311  PHE311     -0.0203
    110  CD1        9.5860   23.4400    9.2770 C.ar  311  PHE311     -0.0042
    111  CD2       11.9270   23.9440    9.2250 C.ar  311  PHE311     -0.0042
    112  CE1        9.8650   22.0910    9.0900 C.ar  311  PHE311     -0.0003
    113  CE2       12.2190   22.5970    9.0370 C.ar  311  PHE311     -0.0003
    114  CZ        11.1850   21.6680    8.9700 C.ar  311  PHE311     -0.0000
    115  N         20.8660   20.8550   11.5230 N.3   316  GLU316     -0.1245
    116  CA        20.6450   20.6230   10.1040 C.3   316  GLU316      0.1567
    117  C         21.8170   19.7920    9.6100 C.2   316  GLU316      0.2260
    118  O         22.9630   20.0770    9.9540 O.2   316  GLU316     -0.2867
    119  CB        20.5520   21.9510    9.3490 C.3   316  GLU316      0.0388
    120  CG        20.4760   21.8390    7.8290 C.3   316  GLU316      0.1160
    121  CD        19.2450   21.1080    7.3550 C.2   316  GLU316      0.3649
    122  OE1       18.1390   21.4200    7.8400 O.co2 316  GLU316     -0.2457
    123  OE2       19.3870   20.2150    6.4930 O.co2 316  GLU316     -0.2457
@<TRIPOS>BOND
     1    33    31   am
     2    31    30    1
     3    31    32    2
     4    30    29    1
     5    56    57    1
     6    25    26    1
     7    58    57    1
     8    58    59    2
     9    57    60    1
    10    29    26    1
    11    26    27    1
    12    60    61    1
    13    60    62    1
    14    63    64    1
    15    27    34   am
    16    27    28    2
    17    64    67    1
    18    64    65    1
    19    34    35    1
    20    78    76    1
    21    67    68    1
    22    65    72   am
    23    65    66    2
    24    77    76    1
    25    70    69    1
    26    70    71    1
    27    72    73    1
    28    69    68    1
    29    76    73    1
    30    35    38    1
    31    35    36    1
    32    22    24   ar
    33    22    20   ar
    34    73    74    1
    35    38    39    1
    36    24    23   ar
    37    36    37    2
    38    19    20   ar
    39    19    17   ar
    40    20    18   ar
    41    74    75    2
    42    74    79   am
    43    23    21   ar
    44    17    16   ar
    45   123   121   ar
    46    18    21   ar
    47    18    16   ar
    48    79    80    1
    49    16    15    1
    50   121   120    1
    51   121   122   ar
    52     8     7    2
    53    40    41    1
    54   120   119    1
    55    80    81    1
    56     9    10    1
    57     9     6    1
    58     7     6    1
    59    88    87    1
    60    15    12    1
    61    82    81    2
    62    81    83   am
    63    41    42    1
    64    41    44    1
    65   114   113   ar
    66   114   112   ar
    67   113   111   ar
    68     6     5    1
    69   112   110   ar
    70    42    43    2
    71    11    12    1
    72   111   109   ar
    73    13    12    1
    74    13    14    2
    75   110   109   ar
    76   109   108    1
    77   119   116    1
    78    83    84    1
    79   108   105    1
    80    87    84    1
    81    87    89    1
    82   117   118    2
    83   117   116    1
    84    46    45    2
    85   116   115    1
    86    44    45    1
    87     5     3   am
    88    84    85    1
    89    45    47   am
    90   105   104    1
    91   105   106    1
    92   107   106    2
    93     3     4    2
    94     3     2    1
    95    54    52    1
    96    85    86    2
    97    85    90   am
    98    52    49    1
    99    52    53    1
   100     2     1    1
   101    90    91    1
   102    49    48    1
   103    49    50    1
   104    50    51    2
   105    53    55    1
   106    91    92    1
   107    91    94    1
   108    93    92    2
   109    92    96   am
   110    94    95    1
   111   103   101   am
   112    96    97    1
   113   100   101    1
   114   100    97    1
   115   101   102    2
   116    97    98    1
   117    98    99    2
