@<TRIPOS>MOLECULE
tmp/2zc9B00.pdb
 165 156 0 0 0
SMALL
GASTEIGER

@<TRIPOS>ATOM
      1  N         11.6750    0.9990   10.2810 N.3    17  MET17      -0.1245
      2  CA        11.8900   -0.4080    9.9230 C.3    17  MET17       0.1570
      3  C         13.2970   -0.5060    9.3390 C.2    17  MET17       0.2261
      4  O         13.6250    0.2500    8.4240 O.2    17  MET17      -0.2867
      5  CB        10.8900   -0.9080    8.8860 C.3    17  MET17       0.0387
      6  CG        11.0900   -2.3570    8.4270 C.3    17  MET17       0.0595
      7  SD         9.9550   -2.7690    7.0660 S.3    17  MET17      -0.1393
      8  CE         8.3800   -2.6930    7.8970 C.3    17  MET17       0.0692
      9  N         15.4700   -2.5930    6.9230 N.3    19  PHE19      -0.1241
     10  CA        15.0730   -3.4450    5.8000 C.3    19  PHE19       0.1605
     11  C         16.2790   -3.9760    5.0430 C.2    19  PHE19       0.2264
     12  O         17.1760   -3.2030    4.7190 O.2    19  PHE19      -0.2867
     13  CB        14.1990   -2.6130    4.8460 C.3    19  PHE19       0.0534
     14  CG        13.3800   -3.4820    3.8960 C.ar   19  PHE19      -0.0203
     15  CD1       13.6480   -3.4250    2.5310 C.ar   19  PHE19      -0.0042
     16  CD2       12.3840   -4.3090    4.3740 C.ar   19  PHE19      -0.0042
     17  CE1       12.9090   -4.2060    1.6540 C.ar   19  PHE19      -0.0003
     18  CE2       11.6580   -5.1030    3.5110 C.ar   19  PHE19      -0.0003
     19  CZ        11.9370   -5.0440    2.1600 C.ar   19  PHE19      -0.0000
     20  N         18.3800   -5.2450    1.9120 N.3    21  LYS21      -0.1245
     21  CA        18.2510   -4.9930    0.4730 C.3    21  LYS21       0.1561
     22  C         18.0390   -6.2530   -0.3700 C.2    21  LYS21       0.2260
     23  O         17.3730   -6.1850   -1.4130 O.2    21  LYS21      -0.2867
     24  CB        19.4770   -4.2710   -0.0830 C.3    21  LYS21       0.0271
     25  CG        19.6520   -2.8130    0.2420 C.3    21  LYS21       0.0035
     26  CD        20.7650   -2.1370   -0.5450 C.3    21  LYS21       0.0206
     27  CE        21.2970   -0.9160    0.1690 C.3    21  LYS21       0.1093
     28  NZ        22.4320   -0.2200   -0.4910 N.3    21  LYS21      -0.1314
     29  N         14.8350   -9.0230    0.1230 N.3    24  GLN24      -0.1231
     30  CA        14.0830   -7.8900    0.6750 C.3    24  GLN24       0.1698
     31  C         13.1790   -8.3990    1.7850 C.2    24  GLN24       0.2592
     32  O         12.2310   -9.1320    1.5230 O.2    24  GLN24      -0.2718
     33  CB        13.2810   -7.1440   -0.3970 C.3    24  GLN24       0.0381
     34  CG        14.1610   -6.4650   -1.4360 C.3    24  GLN24       0.0905
     35  CD        13.4800   -5.3270   -2.1720 C.2    24  GLN24       0.2608
     36  OE1       14.1600   -4.4940   -2.7790 O.2    24  GLN24      -0.2717
     37  NE2       12.1500   -5.2730   -2.1390 N.am   24  GLN24      -0.0878
     38  N         13.5170   -7.9900    3.0090 N.am   25  GLU25      -0.1966
     39  CA        12.8380   -8.4660    4.1910 C.3    25  GLU25       0.1733
     40  C         13.1130   -7.5750    5.4190 C.2    25  GLU25       0.2616
     41  O         14.1270   -6.9010    5.4430 O.2    25  GLU25      -0.2715
     42  CB        13.2710   -9.8980    4.5160 C.3    25  GLU25       0.0429
     43  CG        14.7160  -10.0290    4.9850 C.3    25  GLU25       0.1163
     44  CD        15.1560  -11.4820    5.1230 C.2    25  GLU25       0.3649
     45  OE1       14.3830  -12.4060    4.7940 O.co2  25  GLU25      -0.2457
     46  OE2       16.2890  -11.7420    5.5770 O.co2  25  GLU25      -0.2457
     47  N         12.1850   -7.6550    6.3610 N.am   26  LEU26      -0.1977
     48  CA        12.2860   -6.9930    7.6440 C.3    26  LEU26       0.1596
     49  C         13.5090   -7.5170    8.3910 C.2    26  LEU26       0.2287
     50  O         13.5900   -8.7300    8.6000 O.2    26  LEU26      -0.2864
     51  CB        11.0840   -7.2860    8.5560 C.3    26  LEU26       0.0297
     52  CG        11.3710   -6.8630   10.0210 C.3    26  LEU26       0.0022
     53  CD1       11.1450   -5.3730   10.1900 C.3    26  LEU26       0.0001
     54  CD2       10.5110   -7.6540   10.9740 C.3    26  LEU26       0.0001
     55  N         18.5450   -0.7160    4.3340 N.3    60  LEU60      -0.1245
     56  CA        17.8680    0.5710    4.1960 C.3    60  LEU60       0.1561
     57  C         17.0370    0.8600    5.4500 C.2    60  LEU60       0.2260
     58  O         16.6970   -0.1310    6.1160 O.2    60  LEU60      -0.2867
     59  CB        16.8950    0.5880    3.0300 C.3    60  LEU60       0.0270
     60  CG        17.5360    0.3910    1.6480 C.3    60  LEU60       0.0019
     61  CD1       16.4730    0.0130    0.6340 C.3    60  LEU60       0.0001
     62  CD2       18.3060    1.6480    1.2880 C.3    60  LEU60       0.0001
     63  N         13.3750    2.4360    6.5380 N.3    62  ARG62      -0.1245
     64  CA        12.0560    2.8180    6.0630 C.3    62  ARG62       0.1563
     65  C         11.3030    3.5170    7.2190 C.2    62  ARG62       0.2260
     66  O         11.0790    2.8870    8.2590 O.2    62  ARG62      -0.2867
     67  CB        11.2760    1.6000    5.5480 C.3    62  ARG62       0.0307
     68  CG        12.0560    0.8800    4.4280 C.3    62  ARG62       0.0489
     69  CD        11.3720   -0.3300    3.8550 C.3    62  ARG62       0.2205
     70  NE        10.1180   -0.0510    3.1410 N.pl3  62  ARG62      -0.0865
     71  CZ         9.3440   -0.9710    2.5950 C.cat  62  ARG62       0.5346
     72  NH1        9.6050   -2.2750    2.6170 N.pl3  62  ARG62       0.1354
     73  NH2        8.2250   -0.5710    1.9780 N.pl3  62  ARG62       0.1354
     74  N          3.1470   -3.4840    7.1470 N.3    68  ARG68      -0.1231
     75  CA         4.4120   -4.2270    7.1700 C.3    68  ARG68       0.1694
     76  C          5.0000   -4.3760    5.7740 C.2    68  ARG68       0.2593
     77  O          6.1540   -4.0350    5.5220 O.2    68  ARG68      -0.2718
     78  CB         4.2080   -5.5970    7.8150 C.3    68  ARG68       0.0321
     79  CG         5.5150   -6.3750    7.9740 C.3    68  ARG68       0.0489
     80  CD         5.3810   -7.6380    8.7860 C.3    68  ARG68       0.2205
     81  NE         4.4470   -8.5630    8.1380 N.pl3  68  ARG68      -0.0865
     82  CZ         4.7510   -9.4790    7.2330 C.cat  68  ARG68       0.5346
     83  NH1        3.7810  -10.2410    6.7360 N.pl3  68  ARG68       0.1354
     84  NH2        6.0050   -9.6380    6.8290 N.pl3  68  ARG68       0.1354
     85  N          4.1760   -4.9000    4.8560 N.am   69  THR69      -0.1939
     86  CA         4.7550   -5.4160    3.5980 C.3    69  THR69       0.2028
     87  C          4.6320   -4.4590    2.4340 C.2    69  THR69       0.2642
     88  O          5.3830   -4.4730    1.4530 O.2    69  THR69      -0.2714
     89  CB         4.0770   -6.7390    3.1890 C.3    69  THR69       0.1808
     90  OG1        2.6630   -6.5190    3.0380 O.3    69  THR69      -0.2208
     91  CG2        4.2130   -7.7960    4.2780 C.3    69  THR69       0.0379
     92  N          3.6380   -3.5780    2.5330 N.am   70  ARG70      -0.1963
     93  CA         3.3360   -2.7210    1.3910 C.3    70  ARG70       0.1729
     94  C          4.3370   -1.6020    1.2330 C.2    70  ARG70       0.2616
     95  O          4.9370   -1.1120    2.1880 O.2    70  ARG70      -0.2715
     96  CB         1.9280   -2.1510    1.5150 C.3    70  ARG70       0.0348
     97  CG         0.9220   -3.2030    0.9930 C.3    70  ARG70       0.0492
     98  CD        -0.4960   -2.6700    1.2180 C.3    70  ARG70       0.2205
     99  NE        -0.6850   -1.4330    0.4180 N.pl3  70  ARG70      -0.0865
    100  CZ        -0.7640   -0.2030    0.9870 C.cat  70  ARG70       0.5346
    101  NH1       -0.7600   -0.0330    2.2980 N.pl3  70  ARG70       0.1354
    102  NH2       -0.9120    0.7870    0.0610 N.pl3  70  ARG70       0.1354
    103  N          4.5520   -1.1430    0.0110 N.am   71  TYR71      -0.1974
    104  CA         5.3200    0.0550   -0.2330 C.3    71  TYR71       0.1639
    105  C          4.3430    1.2360   -0.1420 C.2    71  TYR71       0.2290
    106  O          3.3860    1.2950   -0.9420 O.2    71  TYR71      -0.2864
    107  CB         6.0480   -0.0110   -1.6020 C.3    71  TYR71       0.0560
    108  CG         6.5970    1.3610   -1.9200 C.ar   71  TYR71      -0.0198
    109  CD1        7.5720    1.8880   -1.0820 C.ar   71  TYR71      -0.0009
    110  CD2        6.1520    2.1580   -2.9790 C.ar   71  TYR71      -0.0009
    111  CE1        8.1430    3.1140   -1.2450 C.ar   71  TYR71       0.0417
    112  CE2        6.7280    3.4070   -3.1500 C.ar   71  TYR71       0.0417
    113  CZ         7.7000    3.8830   -2.3070 C.ar   71  TYR71       0.1957
    114  OH         8.2790    5.1120   -2.4550 O.3    71  TYR71      -0.2866
    115  N          3.9830    7.8710   -1.2020 N.3    74  ASN74      -0.1240
    116  CA         3.6670    9.2090   -0.7600 C.3    74  ASN74       0.1653
    117  C          3.6310    9.3880    0.7520 C.2    74  ASN74       0.2266
    118  O          3.2630   10.4350    1.2880 O.2    74  ASN74      -0.2867
    119  CB         2.2670    9.5690   -1.3220 C.3    74  ASN74       0.1155
    120  CG         2.3150    9.7740   -2.8260 C.2    74  ASN74       0.2627
    121  OD1        3.2570    9.3620   -3.4890 O.2    74  ASN74      -0.2716
    122  ND2        1.2720   10.4080   -3.3350 N.am   74  ASN74      -0.0877
    123  N          5.6790    6.7830    3.2970 N.3    76  GLU76      -0.1231
    124  CA         6.9720    6.3620    3.8480 C.3    76  GLU76       0.1699
    125  C          8.1060    7.0140    3.0860 C.2    76  GLU76       0.2592
    126  O          8.0040    7.4880    1.9500 O.2    76  GLU76      -0.2718
    127  CB         7.0420    4.8450    3.8510 C.3    76  GLU76       0.0402
    128  CG         7.3230    4.2200    2.4780 C.3    76  GLU76       0.1161
    129  CD         7.7190    2.7650    2.6650 C.2    76  GLU76       0.3649
    130  OE1        8.9280    2.5200    2.9460 O.co2  76  GLU76      -0.2457
    131  OE2        6.8500    1.8830    2.5920 O.co2  76  GLU76      -0.2457
    132  N          9.2570    7.0920    3.7430 N.am   77  LYS77      -0.1966
    133  CA        10.4600    7.6080    3.1110 C.3    77  LYS77       0.1728
    134  C         11.5400    6.5440    3.3540 C.2    77  LYS77       0.2616
    135  O         11.5450    5.9620    4.4290 O.2    77  LYS77      -0.2715
    136  CB        10.9320    8.9450    3.6190 C.3    77  LYS77       0.0311
    137  CG         9.9140   10.0740    3.3780 C.3    77  LYS77       0.0038
    138  CD         9.6350   10.2270    1.8880 C.3    77  LYS77       0.0206
    139  CE         8.4820   11.2110    1.6900 C.3    77  LYS77       0.1093
    140  NZ         7.9280   11.1660    0.3010 N.3    77  LYS77      -0.1314
    141  N         12.3750    6.3370    2.3520 N.am   78  ILE78      -0.1977
    142  CA        13.3400    5.2370    2.4170 C.3    78  ILE78       0.1596
    143  C         14.7270    5.8530    2.3480 C.2    78  ILE78       0.2287
    144  O         14.9720    6.6560    1.4520 O.2    78  ILE78      -0.2864
    145  CB        13.1430    4.2260    1.2990 C.3    78  ILE78       0.0276
    146  CG1       11.7890    3.5240    1.2970 C.3    78  ILE78       0.0022
    147  CG2       14.2650    3.1810    1.3240 C.3    78  ILE78       0.0022
    148  CD1       11.6630    2.2930    0.4500 C.3    78  ILE78       0.0001
    149  N         19.1430    5.6920    2.9380 N.3    80  MET80      -0.1245
    150  CA        20.3900    4.9400    2.9480 C.3    80  MET80       0.1570
    151  C         21.2450    5.3190    4.1470 C.2    80  MET80       0.2261
    152  O         21.2150    6.4420    4.6480 O.2    80  MET80      -0.2867
    153  CB        21.1970    5.1980    1.6640 C.3    80  MET80       0.0387
    154  CG        20.4550    4.7610    0.4140 C.3    80  MET80       0.0595
    155  SD        21.4350    4.9960   -1.0950 S.3    80  MET80      -0.1393
    156  CE        22.2130    6.5590   -0.7360 C.3    80  MET80       0.0692
    157  N          2.7460  -13.2220   10.9230 N.3   149  GLN149     -0.1245
    158  CA         3.2500  -11.8630   10.7370 C.3   149  GLN149      0.1566
    159  C          2.0970  -10.8670   10.6630 C.2   149  GLN149      0.2260
    160  O          1.0450  -11.1970   10.0790 O.2   149  GLN149     -0.2867
    161  CB         4.0960  -11.8050    9.4740 C.3   149  GLN149      0.0367
    162  CG         5.5830  -11.6140    9.7100 C.3   149  GLN149      0.0905
    163  CD         6.4510  -12.6450    9.0150 C.2   149  GLN149      0.2608
    164  OE1        5.9850  -13.3950    8.1570 O.2   149  GLN149     -0.2717
    165  NE2        7.7310  -12.6940    9.3720 N.am  149  GLN149     -0.0878
@<TRIPOS>BOND
     1   121   120    2
     2   122   120   am
     3   112   110   ar
     4   112   113   ar
     5   110   108   ar
     6   120   119    1
     7    36    35    2
     8   114   113    1
     9   113   111   ar
    10    35    37   am
    11    35    34    1
    12   108   107    1
    13   108   109   ar
    14   107   104    1
    15    34    33    1
    16    23    22    2
    17   119   116    1
    18   111   109   ar
    19   115   116    1
    20   155   156    1
    21   155   154    1
    22   106   105    2
    23   116   117    1
    24    26    27    1
    25    26    25    1
    26    28    27    1
    27    33    30    1
    28    22    21    1
    29   104   105    1
    30   104   103    1
    31    24    25    1
    32    24    21    1
    33   103    94   am
    34   102   100    1
    35    29    30    1
    36   140   139    1
    37   154   153    1
    38    99   100    2
    39    99    98    1
    40   148   146    1
    41    21    20    1
    42    61    60    1
    43    30    31    1
    44   117   118    2
    45   100   101    1
    46    97    98    1
    47    97    96    1
    48    94    93    1
    49    94    95    2
    50    62    60    1
    51   146   145    1
    52   145   147    1
    53   145   142    1
    54    93    96    1
    55    93    92    1
    56   144   143    2
    57    88    87    2
    58    32    31    2
    59    60    59    1
    60    17    19   ar
    61    17    15   ar
    62   153   150    1
    63   139   138    1
    64    31    38   am
    65   138   137    1
    66   126   125    2
    67    73    71    1
    68    19    18   ar
    69   143   142    1
    70   141   142    1
    71   141   134   am
    72    87    92   am
    73    87    86    1
    74   128   129    1
    75   128   127    1
    76    15    14   ar
    77   131   129   ar
    78    71    72    1
    79    71    70    2
    80   129   130   ar
    81   149   150    1
    82   150   151    1
    83    38    39    1
    84    59    56    1
    85    90    89    1
    86   125   132   am
    87   125   124    1
    88   133   134    1
    89   133   136    1
    90   133   132    1
    91    70    69    1
    92    89    86    1
    93    89    91    1
    94   123   124    1
    95   134   135    2
    96   137   136    1
    97    18    16   ar
    98    86    85    1
    99   124   127    1
   100    69    68    1
   101    14    16   ar
   102    14    13    1
   103   151   152    2
   104    39    42    1
   105    39    40    1
   106    56    55    1
   107    56    57    1
   108    68    67    1
   109    42    43    1
   110    12    11    2
   111    45    44   ar
   112    13    10    1
   113    85    76   am
   114    43    44    1
   115    11    10    1
   116    44    46   ar
   117    40    41    2
   118    40    47   am
   119    57    58    2
   120    77    76    2
   121    67    64    1
   122    76    75    1
   123    10     9    1
   124    64    63    1
   125    64    65    1
   126    47    48    1
   127    83    82    1
   128    84    82    1
   129     7     8    1
   130     7     6    1
   131    74    75    1
   132    75    78    1
   133    65    66    2
   134    82    81    2
   135    48    49    1
   136    48    51    1
   137    78    79    1
   138    79    80    1
   139    81    80    1
   140   164   163    2
   141    49    50    2
   142     4     3    2
   143     6     5    1
   144    51    52    1
   145     5     2    1
   146   163   165   am
   147   163   162    1
   148     3     2    1
   149   161   162    1
   150   161   158    1
   151     2     1    1
   152    52    53    1
   153    52    54    1
   154   160   159    2
   155   159   158    1
   156   158   157    1
