@<TRIPOS>MOLECULE
tmp/2zceA00.pdb
 158 147 0 0 0
SMALL
GASTEIGER

@<TRIPOS>ATOM
      1  N          3.2770   71.9990   13.4230 N.3    82  MET82      -0.1245
      2  CA         4.3770   71.9480   12.4610 C.3    82  MET82       0.1570
      3  C          5.6220   71.3640   13.1290 C.2    82  MET82       0.2261
      4  O          6.6920   71.2970   12.5290 O.2    82  MET82      -0.2867
      5  CB         4.7070   73.3480   11.9370 C.3    82  MET82       0.0387
      6  CG         3.7650   73.8710   10.8490 C.3    82  MET82       0.0595
      7  SD         3.6450   72.7820    9.4150 S.3    82  MET82      -0.1393
      8  CE         5.2940   72.8560    8.8140 C.3    82  MET82       0.0692
      9  N          5.6930   80.9730    8.2150 N.3   106  MET106     -0.1245
     10  CA         5.9170   80.2070    6.9930 C.3   106  MET106      0.1570
     11  C          4.5640   79.8930    6.3560 C.2   106  MET106      0.2261
     12  O          3.5130   80.1150    6.9530 O.2   106  MET106     -0.2867
     13  CB         6.6410   78.8860    7.3070 C.3   106  MET106      0.0387
     14  CG         5.6900   77.7850    7.7110 C.3   106  MET106      0.0595
     15  SD         6.0480   77.0880    9.2960 S.3   106  MET106     -0.1393
     16  CE         7.6490   76.4280    8.9760 C.3   106  MET106      0.0692
     17  N          3.8630   76.6450    4.9170 N.3   108  ALA108     -0.1245
     18  CA         3.5440   75.2120    4.9970 C.3   108  ALA108      0.1562
     19  C          2.2210   74.7670    5.6210 C.2   108  ALA108      0.2260
     20  O          1.5130   73.9560    5.0300 O.2   108  ALA108     -0.2867
     21  CB         4.7080   74.4570    5.6680 C.3   108  ALA108      0.0290
     22  N         -0.7010   75.3790    3.2760 N.3   111  LEU111     -0.1231
     23  CA        -0.5280   74.5830    2.0620 C.3   111  LEU111      0.1693
     24  C         -0.7620   73.0680    2.3240 C.2   111  LEU111      0.2592
     25  O         -1.2690   72.3650    1.4550 O.2   111  LEU111     -0.2718
     26  CB         0.8530   74.8470    1.4440 C.3   111  LEU111      0.0284
     27  CG         1.0120   76.2970    0.8950 C.3   111  LEU111      0.0019
     28  CD1        2.4230   76.4690    0.3590 C.3   111  LEU111      0.0001
     29  CD2       -0.0070   76.5780   -0.2230 C.3   111  LEU111      0.0001
     30  N         -0.3970   72.5880    3.5120 N.am  112  TYR112     -0.1976
     31  CA        -0.6530   71.1990    3.9150 C.3   112  TYR112      0.1639
     32  C         -2.1780   71.0220    3.8980 C.2   112  TYR112      0.2290
     33  O         -2.6970   70.0180    3.3990 O.2   112  TYR112     -0.2864
     34  CB        -0.1610   70.9640    5.3560 C.3   112  TYR112      0.0560
     35  CG         1.1320   70.1920    5.4960 C.ar  112  TYR112     -0.0198
     36  CD1        2.1290   70.6370    6.3610 C.ar  112  TYR112     -0.0009
     37  CD2        1.3260   68.9710    4.8340 C.ar  112  TYR112     -0.0009
     38  CE1        3.2810   69.9010    6.5860 C.ar  112  TYR112      0.0417
     39  CE2        2.4980   68.2080    5.0540 C.ar  112  TYR112      0.0417
     40  CZ         3.4660   68.6850    5.9340 C.ar  112  TYR112      0.1957
     41  OH         4.6310   67.9750    6.1720 O.3   112  TYR112     -0.2866
     42  N         -3.3280   70.7810    0.2900 N.3   115  LEU115     -0.1245
     43  CA        -2.9600   69.5120   -0.3710 C.3   115  LEU115      0.1561
     44  C         -3.9640   68.4380    0.0330 C.2   115  LEU115      0.2260
     45  O         -4.4650   67.6950   -0.8130 O.2   115  LEU115     -0.2867
     46  CB        -1.5520   69.0600    0.0280 C.3   115  LEU115      0.0270
     47  CG        -0.4060   69.9150   -0.5210 C.3   115  LEU115      0.0019
     48  CD1        0.9200   69.4470    0.0680 C.3   115  LEU115      0.0001
     49  CD2       -0.3790   69.8110   -2.0420 C.3   115  LEU115      0.0001
     50  N          8.8330   86.7910   11.2250 N.3   136  ARG136     -0.1245
     51  CA         9.7070   86.1820   12.2240 C.3   136  ARG136      0.1563
     52  C         10.5190   87.2570   12.9440 C.2   136  ARG136      0.2260
     53  O         11.0410   88.1600   12.3090 O.2   136  ARG136     -0.2867
     54  CB        10.6870   85.2010   11.5760 C.3   136  ARG136      0.0307
     55  CG        10.0330   84.0780   10.7770 C.3   136  ARG136      0.0489
     56  CD        11.0750   83.1190   10.1970 C.3   136  ARG136      0.2205
     57  NE        10.4150   82.1180    9.3530 N.pl3 136  ARG136     -0.0865
     58  CZ        11.0270   81.0980    8.7620 C.cat 136  ARG136      0.5346
     59  NH1       12.3360   80.9140    8.9160 N.pl3 136  ARG136      0.1354
     60  NH2       10.3220   80.2710    8.0020 N.pl3 136  ARG136      0.1354
     61  N          7.4010   85.1800    1.1800 N.3   150  MET150     -0.1245
     62  CA         7.8360   83.8550    0.7820 C.3   150  MET150      0.1570
     63  C          7.0280   83.3480   -0.3920 C.2   150  MET150      0.2261
     64  O          5.8450   83.6710   -0.5430 O.2   150  MET150     -0.2867
     65  CB         7.6340   82.8550    1.9460 C.3   150  MET150      0.0387
     66  CG         8.3480   81.4990    1.7700 C.3   150  MET150      0.0595
     67  SD         8.0030   80.2660    3.0870 S.3   150  MET150     -0.1393
     68  CE         9.0560   80.8600    4.5010 C.3   150  MET150      0.0692
     69  N          6.2150   79.5400   -1.8220 N.3   152  ASN152     -0.1225
     70  CA         6.3360   78.1350   -1.4260 C.3   152  ASN152      0.1785
     71  C          5.5260   77.4100   -2.4990 C.2   152  ASN152      0.2597
     72  O          4.3240   77.6810   -2.6620 O.2   152  ASN152     -0.2718
     73  CB         5.6940   77.9080   -0.0430 C.3   152  ASN152      0.1169
     74  CG         5.9610   76.5060    0.5530 C.2   152  ASN152      0.2627
     75  OD1        5.9410   76.3450    1.7780 O.2   152  ASN152     -0.2716
     76  ND2        6.1760   75.4960   -0.2970 N.am  152  ASN152     -0.0877
     77  N          6.1720   76.5500   -3.2820 N.am  153  PHE153     -0.1962
     78  CA         5.4010   75.7830   -4.2600 C.3   153  PHE153      0.1771
     79  C          5.5240   74.3180   -3.8350 C.2   153  PHE153      0.2619
     80  O          6.4480   73.9540   -3.1050 O.2   153  PHE153     -0.2715
     81  CB         5.9130   75.9660   -5.7030 C.3   153  PHE153      0.0574
     82  CG         7.3340   75.4890   -5.9300 C.ar  153  PHE153     -0.0200
     83  CD1        8.3970   76.3940   -5.9130 C.ar  153  PHE153     -0.0042
     84  CD2        7.6060   74.1400   -6.1870 C.ar  153  PHE153     -0.0042
     85  CE1        9.6890   75.9760   -6.1480 C.ar  153  PHE153     -0.0003
     86  CE2        8.9110   73.7080   -6.4240 C.ar  153  PHE153     -0.0003
     87  CZ         9.9510   74.6220   -6.4060 C.ar  153  PHE153     -0.0000
     88  N          4.5910   73.4810   -4.2660 N.am  154  CYS154     -0.1968
     89  CA         4.7060   72.0770   -3.9210 C.3   154  CYS154      0.1712
     90  C          3.8730   71.2170   -4.8330 C.2   154  CYS154      0.2296
     91  O          2.9380   71.6820   -5.4790 O.2   154  CYS154     -0.2864
     92  CB         4.3480   71.8310   -2.4550 C.3   154  CYS154      0.0983
     93  SG         2.7330   72.4000   -1.9110 S.3   154  CYS154     -0.0798
     94  N         21.3560   81.8810    1.6550 N.3   197  GLU197     -0.1245
     95  CA        20.3560   80.8660    1.3840 C.3   197  GLU197      0.1567
     96  C         19.1330   81.4960    0.7090 C.2   197  GLU197      0.2260
     97  O         18.4290   82.3340    1.2950 O.2   197  GLU197     -0.2867
     98  CB        19.8970   80.1930    2.6690 C.3   197  GLU197      0.0388
     99  CG        18.7930   79.1760    2.4240 C.3   197  GLU197      0.1160
    100  CD        18.2040   78.6440    3.7090 C.2   197  GLU197      0.3649
    101  OE1       18.9480   78.0230    4.4860 O.co2 197  GLU197     -0.2457
    102  OE2       16.9980   78.8490    3.9450 O.co2 197  GLU197     -0.2457
    103  N         14.9960   76.7000    0.9330 N.3   200  SER200     -0.1217
    104  CA        15.1230   75.4100    1.5980 C.3   200  SER200      0.1889
    105  C         14.0770   74.5790    0.8610 C.2   200  SER200      0.2288
    106  O         12.9220   75.0080    0.6800 O.2   200  SER200     -0.2866
    107  CB        14.7870   75.4840    3.0760 C.3   200  SER200      0.2089
    108  OG        15.9510   75.8190    3.8040 O.3   200  SER200     -0.2183
    109  N         12.4780   70.4340    0.0990 N.3   202  VAL202     -0.1245
    110  CA        12.4430   69.0790    0.6170 C.3   202  VAL202      0.1561
    111  C         11.6890   68.0870   -0.2380 C.2   202  VAL202      0.2260
    112  O         10.7110   68.4210   -0.9200 O.2   202  VAL202     -0.2867
    113  CB        11.9050   69.0160    2.0980 C.3   202  VAL202      0.0252
    114  CG1       11.6960   70.4100    2.6620 C.3   202  VAL202      0.0019
    115  CG2       10.6470   68.1920    2.1850 C.3   202  VAL202      0.0019
    116  N          7.6170   62.8460    4.7620 N.3   206  ILE206     -0.1245
    117  CA         8.3170   63.0250    6.0250 C.3   206  ILE206      0.1561
    118  C          7.3340   62.6900    7.1410 C.2   206  ILE206      0.2260
    119  O          6.1250   62.6980    6.9280 O.2   206  ILE206     -0.2867
    120  CB         8.8750   64.4740    6.2120 C.3   206  ILE206      0.0252
    121  CG1        7.7450   65.5090    6.1490 C.3   206  ILE206      0.0019
    122  CG2        9.9720   64.7510    5.1770 C.3   206  ILE206      0.0019
    123  CD1        8.2050   66.8920    6.5490 C.3   206  ILE206      0.0001
    124  N          6.2570   64.3270    9.6530 N.3   208  LEU208     -0.1245
    125  CA         5.3130   65.4070    9.9110 C.3   208  LEU208      0.1561
    126  C          3.9990   65.3170    9.1040 C.2   208  LEU208      0.2260
    127  O          2.9380   65.7340    9.5840 O.2   208  LEU208     -0.2867
    128  CB         6.0060   66.7400    9.6440 C.3   208  LEU208      0.0270
    129  CG         5.1760   67.9990    9.8840 C.3   208  LEU208      0.0019
    130  CD1        4.7300   68.0430   11.3410 C.3   208  LEU208      0.0001
    131  CD2        6.0150   69.2250    9.5320 C.3   208  LEU208      0.0001
    132  N          5.6790   63.9190   -1.8860 N.3   218  TRP218     -0.1241
    133  CA         5.5510   65.2960   -2.3470 C.3   218  TRP218      0.1605
    134  C          6.9210   65.9300   -2.3940 C.2   218  TRP218      0.2264
    135  O          7.8830   65.3720   -1.8730 O.2   218  TRP218     -0.2867
    136  CB         4.6560   66.0960   -1.3960 C.3   218  TRP218      0.0550
    137  CG         5.1880   66.1510    0.0110 C.ar  218  TRP218      0.0003
    138  CD1        4.9880   65.2250    0.9990 C.ar  218  TRP218      0.0946
    139  CD2        6.0250   67.1720    0.5850 C.ar  218  TRP218      0.0152
    140  NE1        5.6470   65.6050    2.1480 N.ar  218  TRP218     -0.2442
    141  CE2        6.2870   66.7950    1.9230 C.ar  218  TRP218      0.0810
    142  CE3        6.5750   68.3690    0.0990 C.ar  218  TRP218      0.0012
    143  CZ2        7.0760   67.5730    2.7840 C.ar  218  TRP218      0.0191
    144  CZ3        7.3600   69.1450    0.9580 C.ar  218  TRP218      0.0001
    145  CH2        7.6010   68.7440    2.2810 C.ar  218  TRP218      0.0015
    146  N          8.6800   70.1520   -2.4710 N.3   220  GLY220     -0.1210
    147  CA         8.3130   71.5490   -2.3050 C.3   220  GLY220      0.1956
    148  C          9.5320   72.3620   -1.9570 C.2   220  GLY220      0.2612
    149  O         10.5610   71.7940   -1.5760 O.2   220  GLY220     -0.2717
    150  N          9.4220   73.6840   -2.0880 N.am  221  ALA221     -0.1965
    151  CA        10.5340   74.5770   -1.7700 C.3   221  ALA221      0.1728
    152  C          9.9670   75.9390   -1.4080 C.2   221  ALA221      0.2616
    153  O          8.9340   76.3360   -1.9420 O.2   221  ALA221     -0.2715
    154  CB        11.4620   74.7280   -2.9710 C.3   221  ALA221      0.0334
    155  N         10.6600   76.6370   -0.5080 N.am  222  GLY222     -0.1955
    156  CA        10.2630   77.9710   -0.0840 C.3   222  GLY222      0.1869
    157  C         11.4000   78.9310   -0.3830 C.2   222  GLY222      0.2309
    158  O         12.5510   78.6660   -0.0240 O.2   222  GLY222     -0.2863
@<TRIPOS>BOND
     1    86    87   ar
     2    86    84   ar
     3    87    85   ar
     4    84    82   ar
     5    85    83   ar
     6    82    83   ar
     7    82    81    1
     8    81    78    1
     9    91    90    2
    10    90    89    1
    11    88    89    1
    12    88    79   am
    13    78    79    1
    14    78    77    1
    15    89    92    1
    16    79    80    2
    17    77    71   am
    18   154   151    1
    19    72    71    2
    20    71    70    1
    21   146   147    1
    22    92    93    1
    23   134   133    1
    24   134   135    2
    25   133   132    1
    26   133   136    1
    27   147   148    1
    28   150   148   am
    29   150   151    1
    30    49    47    1
    31   148   149    2
    32   153   152    2
    33    69    70    1
    34   151   152    1
    35    70    73    1
    36   152   155   am
    37   136   137    1
    38   112   111    2
    39    45    44    2
    40    64    63    2
    41    47    46    1
    42    47    48    1
    43   155   156    1
    44    63    62    1
    45   157   156    1
    46   157   158    2
    47    43    46    1
    48    43    44    1
    49    43    42    1
    50    76    74   am
    51   111   110    1
    52    29    27    1
    53    73    74    1
    54   137   139   ar
    55   137   138   ar
    56   109   110    1
    57   142   139   ar
    58   142   144   ar
    59    28    27    1
    60    74    75    2
    61   139   141   ar
    62   110   113    1
    63   106   105    2
    64    96    97    2
    65    96    95    1
    66    62    61    1
    67    62    65    1
    68   105   104    1
    69    27    26    1
    70   103   104    1
    71   144   145   ar
    72   138   140   ar
    73    95    94    1
    74    95    98    1
    75    26    23    1
    76    25    24    2
    77   104   107    1
    78    66    65    1
    79    66    67    1
    80   141   140   ar
    81   141   143   ar
    82    23    24    1
    83    23    22    1
    84   113   115    1
    85   113   114    1
    86   145   143   ar
    87    24    30   am
    88    99    98    1
    89    99   100    1
    90   107   108    1
    91    67    68    1
    92    33    32    2
    93    30    31    1
    94   100   102   ar
    95   100   101   ar
    96    32    31    1
    97    31    34    1
    98   116   117    1
    99    37    39   ar
   100    37    35   ar
   101    17    18    1
   102    18    19    1
   103    18    21    1
   104    20    19    2
   105    39    40   ar
   106   122   120    1
   107    34    35    1
   108    35    36   ar
   109    40    41    1
   110    40    38   ar
   111   117   120    1
   112   117   118    1
   113   121   120    1
   114   121   123    1
   115    11    12    2
   116    11    10    1
   117    36    38   ar
   118   119   118    2
   119    10    13    1
   120    10     9    1
   121    13    14    1
   122    14    15    1
   123    60    58    1
   124    58    59    1
   125    58    57    2
   126     8     7    1
   127    16    15    1
   128   126   127    2
   129   126   125    1
   130    57    56    1
   131     7     6    1
   132   131   129    1
   133   128   129    1
   134   128   125    1
   135   124   125    1
   136   129   130    1
   137    56    55    1
   138    55    54    1
   139     6     5    1
   140    50    51    1
   141    54    51    1
   142     5     2    1
   143    51    52    1
   144    53    52    2
   145     2     3    1
   146     2     1    1
   147     4     3    2
