@<TRIPOS>MOLECULE
tmp/2zcqA00.pdb
 229 216 0 0 0
SMALL
GASTEIGER

@<TRIPOS>ATOM
      1  N         17.9540   51.5670   48.8450 N.3    15  MET15      -0.1245
      2  CA        18.0380   52.7780   48.0360 C.3    15  MET15       0.1570
      3  C         19.2390   53.6380   48.4380 C.2    15  MET15       0.2261
      4  O         19.9490   54.1590   47.5880 O.2    15  MET15      -0.2867
      5  CB        16.7380   53.5770   48.1580 C.3    15  MET15       0.0387
      6  CG        16.6550   54.7910   47.2560 C.3    15  MET15       0.0595
      7  SD        14.9710   55.4630   47.0970 S.3    15  MET15      -0.1393
      8  CE        15.2760   56.8770   46.0240 C.3    15  MET15       0.0692
      9  N         19.3760   59.8410   44.3310 N.3    22  PHE22      -0.1241
     10  CA        17.9280   59.7060   44.4420 C.3    22  PHE22       0.1605
     11  C         17.5000   59.5780   45.8720 C.2    22  PHE22       0.2264
     12  O         16.4360   60.0710   46.2780 O.2    22  PHE22      -0.2867
     13  CB        17.4460   58.5050   43.6230 C.3    22  PHE22       0.0534
     14  CG        17.5850   58.7070   42.1500 C.ar   22  PHE22      -0.0203
     15  CD1       17.2600   59.9320   41.5780 C.ar   22  PHE22      -0.0042
     16  CD2       18.0730   57.7100   41.3340 C.ar   22  PHE22      -0.0042
     17  CE1       17.4280   60.1620   40.2220 C.ar   22  PHE22      -0.0003
     18  CE2       18.2430   57.9360   39.9600 C.ar   22  PHE22      -0.0003
     19  CZ        17.9200   59.1690   39.4140 C.ar   22  PHE22      -0.0000
     20  N         14.6440   62.0760   47.2170 N.3    26  PHE26      -0.1241
     21  CA        13.3740   61.5140   47.6610 C.3    26  PHE26       0.1605
     22  C         13.0980   61.3980   49.1510 C.2    26  PHE26       0.2264
     23  O         11.9420   61.4720   49.5820 O.2    26  PHE26      -0.2867
     24  CB        13.1320   60.1870   46.9140 C.3    26  PHE26       0.0534
     25  CG        12.8350   60.4020   45.4570 C.ar   26  PHE26      -0.0203
     26  CD1       11.7060   61.1220   45.0730 C.ar   26  PHE26      -0.0042
     27  CD2       13.7490   60.0370   44.4900 C.ar   26  PHE26      -0.0042
     28  CE1       11.5020   61.4830   43.7490 C.ar   26  PHE26      -0.0003
     29  CE2       13.5610   60.3910   43.1630 C.ar   26  PHE26      -0.0003
     30  CZ        12.4260   61.1240   42.7930 C.ar   26  PHE26      -0.0000
     31  N          8.2730   55.3150   47.4460 N.3    37  VAL37      -0.1245
     32  CA         9.4180   55.3940   46.5320 C.3    37  VAL37       0.1561
     33  C         10.4970   54.3600   46.8890 C.2    37  VAL37       0.2260
     34  O         11.0600   53.7820   45.9650 O.2    37  VAL37      -0.2867
     35  CB        10.1140   56.8080   46.5260 C.3    37  VAL37       0.0252
     36  CG1       11.3860   56.7460   45.7290 C.3    37  VAL37       0.0019
     37  CG2        9.1950   57.8760   45.9570 C.3    37  VAL37       0.0019
     38  N          9.2890   50.8960   45.6930 N.3    40  ILE40      -0.1231
     39  CA         9.3510   50.8090   44.2450 C.3    40  ILE40       0.1692
     40  C         10.7770   50.8100   43.7600 C.2    40  ILE40       0.2592
     41  O         11.0990   50.1520   42.7870 O.2    40  ILE40      -0.2718
     42  CB         8.5920   51.9720   43.6150 C.3    40  ILE40       0.0266
     43  CG1        7.1230   51.8220   43.9700 C.3    40  ILE40       0.0019
     44  CG2        8.8020   52.0180   42.1090 C.3    40  ILE40       0.0020
     45  CD1        6.3390   53.0900   43.6570 C.3    40  ILE40       0.0001
     46  N         11.6340   51.5480   44.4420 N.am   41  TYR41      -0.1976
     47  CA        13.0050   51.6060   44.0270 C.3    41  TYR41       0.1639
     48  C         13.6080   50.2280   44.2880 C.2    41  TYR41       0.2290
     49  O         14.2240   49.6430   43.3910 O.2    41  TYR41      -0.2864
     50  CB        13.7970   52.6880   44.8010 C.3    41  TYR41       0.0560
     51  CG        15.2970   52.6500   44.5150 C.ar   41  TYR41      -0.0198
     52  CD1       16.1390   51.6880   45.1270 C.ar   41  TYR41      -0.0009
     53  CD2       15.8540   53.4710   43.5380 C.ar   41  TYR41      -0.0009
     54  CE1       17.4970   51.5470   44.7460 C.ar   41  TYR41       0.0417
     55  CE2       17.2120   53.3430   43.1390 C.ar   41  TYR41       0.0417
     56  CZ        18.0330   52.3740   43.7370 C.ar   41  TYR41       0.1957
     57  OH        19.3460   52.2010   43.2650 O.3    41  TYR41      -0.2866
     58  N         12.7270   47.7170   41.7130 N.3    44  CYS44      -0.1221
     59  CA        13.4590   47.8950   40.4720 C.3    44  CYS44       0.1808
     60  C         14.9140   47.5240   40.6170 C.2    44  CYS44       0.2601
     61  O         15.4750   46.9340   39.6960 O.2    44  CYS44      -0.2717
     62  CB        13.3560   49.3390   39.9540 C.3    44  CYS44       0.0970
     63  SG        11.6870   49.9240   39.6550 S.3    44  CYS44      -0.0800
     64  N         15.5250   47.8660   41.7520 N.am   45  ARG45      -0.1979
     65  CA        16.9370   47.5540   41.9560 C.3    45  ARG45       0.1597
     66  C         17.2160   46.0490   41.9170 C.2    45  ARG45       0.2287
     67  O         18.2180   45.5940   41.3200 O.2    45  ARG45      -0.2864
     68  CB        17.4530   48.1060   43.2780 C.3    45  ARG45       0.0334
     69  CG        18.9490   47.9350   43.4030 C.3    45  ARG45       0.0492
     70  CD        19.6410   48.2030   42.0680 C.3    45  ARG45       0.2205
     71  NE        19.9780   49.6120   41.8920 N.pl3  45  ARG45      -0.0865
     72  CZ        20.6020   50.1150   40.8240 C.cat  45  ARG45       0.5346
     73  NH1       20.9600   49.3140   39.8210 N.pl3  45  ARG45       0.1354
     74  NH2       20.8530   51.4280   40.7590 N.pl3  45  ARG45       0.1354
     75  N         17.0190   44.9920   38.2320 N.3    48  ASP48      -0.1225
     76  CA        18.2160   45.4510   37.5340 C.3    48  ASP48       0.1805
     77  C         19.4580   44.6810   37.9250 C.2    48  ASP48       0.2597
     78  O         20.2060   44.2110   37.0670 O.2    48  ASP48      -0.2718
     79  CB        18.4420   46.9320   37.8010 C.3    48  ASP48       0.1424
     80  CG        19.6090   47.4910   37.0240 C.2    48  ASP48       0.3668
     81  OD1       19.5440   47.5030   35.7680 O.co2  48  ASP48      -0.2456
     82  OD2       20.5960   47.9280   37.6670 O.co2  48  ASP48      -0.2456
     83  N         19.6780   44.5460   39.2220 N.am   49  ASP49      -0.1974
     84  CA        20.8550   43.8340   39.7050 C.3    49  ASP49       0.1709
     85  C         20.7750   42.3090   39.6170 C.2    49  ASP49       0.2293
     86  O         21.8160   41.6530   39.6220 O.2    49  ASP49      -0.2864
     87  CB        21.1850   44.2720   41.1420 C.3    49  ASP49       0.1436
     88  CG        21.9010   45.6070   41.1780 C.2    49  ASP49       0.3671
     89  OD1       21.8990   46.2950   40.1380 O.co2  49  ASP49      -0.2456
     90  OD2       22.4620   45.9820   42.2270 O.co2  49  ASP49      -0.2456
     91  N         22.3240   42.5390   36.0630 N.3    52  ASP52      -0.1239
     92  CA        23.4730   43.3490   35.7030 C.3    52  ASP52       0.1674
     93  C         24.6690   43.0660   36.5830 C.2    52  ASP52       0.2266
     94  O         25.7490   43.6240   36.3760 O.2    52  ASP52      -0.2867
     95  CB        23.1230   44.8420   35.7500 C.3    52  ASP52       0.1410
     96  CG        22.1120   45.2410   34.6790 C.2    52  ASP52       0.3668
     97  OD1       22.0260   46.4500   34.3620 O.co2  52  ASP52      -0.2456
     98  OD2       21.3990   44.3480   34.1660 O.co2  52  ASP52      -0.2456
     99  N          9.9730   46.6430   32.4540 N.3   107  LEU107     -0.1245
    100  CA        11.3280   46.7160   33.0070 C.3   107  LEU107      0.1561
    101  C         11.9240   45.3210   33.0140 C.2   107  LEU107      0.2260
    102  O         13.0570   45.1020   32.5790 O.2   107  LEU107     -0.2867
    103  CB        11.3050   47.2700   34.4320 C.3   107  LEU107      0.0270
    104  CG        12.6360   47.1740   35.1810 C.3   107  LEU107      0.0019
    105  CD1       13.6400   48.1330   34.5620 C.3   107  LEU107      0.0001
    106  CD2       12.4410   47.5250   36.6440 C.3   107  LEU107      0.0001
    107  N         15.3000   51.3820   24.7590 N.3   129  TYR129     -0.1241
    108  CA        15.8760   50.6910   25.9030 C.3   129  TYR129      0.1605
    109  C         15.7560   51.6940   27.0740 C.2   129  TYR129      0.2264
    110  O         15.3540   51.3280   28.1710 O.2   129  TYR129     -0.2867
    111  CB        17.3380   50.2820   25.6240 C.3   129  TYR129      0.0534
    112  CG        18.0870   49.8410   26.8620 C.ar  129  TYR129     -0.0201
    113  CD1       18.7650   50.7760   27.6560 C.ar  129  TYR129     -0.0009
    114  CD2       18.0640   48.5010   27.2890 C.ar  129  TYR129     -0.0009
    115  CE1       19.4000   50.3900   28.8430 C.ar  129  TYR129      0.0417
    116  CE2       18.7010   48.1000   28.4810 C.ar  129  TYR129      0.0417
    117  CZ        19.3650   49.0610   29.2450 C.ar  129  TYR129      0.1957
    118  OH        19.9920   48.7140   30.4100 O.3   129  TYR129     -0.2866
    119  N         13.8480   50.7380   30.7270 N.3   133  VAL133     -0.1231
    120  CA        14.6350   50.7360   31.9330 C.3   133  VAL133      0.1692
    121  C         14.4150   51.9110   32.8740 C.2   133  VAL133      0.2591
    122  O         14.7670   51.8600   34.0830 O.2   133  VAL133     -0.2718
    123  CB        16.1100   50.6460   31.5440 C.3   133  VAL133      0.0266
    124  CG1       16.9810   51.2210   32.6220 C.3   133  VAL133      0.0020
    125  CG2       16.4560   49.1850   31.2730 C.3   133  VAL133      0.0020
    126  N         13.7740   52.9440   32.3600 N.am  134  ALA134     -0.1980
    127  CA        13.6300   54.1280   33.1750 C.3   134  ALA134      0.1597
    128  C         12.3140   54.8730   32.9740 C.2   134  ALA134      0.2287
    129  O         11.6830   55.2910   33.9480 O.2   134  ALA134     -0.2864
    130  CB        14.8310   55.0540   32.8980 C.3   134  ALA134      0.0319
    131  N          9.8130   53.4720   34.9430 N.3   137  VAL137     -0.1245
    132  CA         9.9300   53.7270   36.3800 C.3   137  VAL137      0.1561
    133  C          9.2530   55.0380   36.7030 C.2   137  VAL137      0.2260
    134  O          8.5880   55.1720   37.7440 O.2   137  VAL137     -0.2867
    135  CB        11.3650   53.8270   36.8390 C.3   137  VAL137      0.0252
    136  CG1       11.3870   54.1740   38.3020 C.3   137  VAL137      0.0019
    137  CG2       12.0630   52.5000   36.6430 C.3   137  VAL137      0.0019
    138  N          6.1730   55.5870   39.2910 N.3   141  LEU141     -0.1245
    139  CA         6.2560   56.6450   40.3040 C.3   141  LEU141      0.1561
    140  C          5.2150   57.7400   40.1820 C.2   141  LEU141      0.2260
    141  O          4.9610   58.4430   41.1600 O.2   141  LEU141     -0.2867
    142  CB         7.6520   57.3120   40.2930 C.3   141  LEU141      0.0270
    143  CG         8.8150   56.4520   40.8140 C.3   141  LEU141      0.0019
    144  CD1       10.1430   57.1200   40.5640 C.3   141  LEU141      0.0001
    145  CD2        8.6210   56.1790   42.2620 C.3   141  LEU141      0.0001
    146  N         17.0090   60.8860   32.5300 N.3   164  LEU164     -0.1231
    147  CA        17.8900   60.5140   33.6060 C.3   164  LEU164      0.1693
    148  C         18.7190   59.2850   33.2220 C.2   164  LEU164      0.2591
    149  O         19.8990   59.2050   33.5650 O.2   164  LEU164     -0.2718
    150  CB        17.0830   60.2740   34.8880 C.3   164  LEU164      0.0284
    151  CG        16.4450   61.5360   35.5100 C.3   164  LEU164      0.0019
    152  CD1       15.8120   61.1720   36.8560 C.3   164  LEU164      0.0001
    153  CD2       17.4720   62.6420   35.6950 C.3   164  LEU164      0.0001
    154  N         18.1290   58.3580   32.4720 N.am  165  GLN165     -0.1979
    155  CA        18.8420   57.1480   32.0530 C.3   165  GLN165      0.1601
    156  C         19.9340   57.4310   31.0070 C.2   165  GLN165      0.2287
    157  O         20.9730   56.7630   31.0020 O.2   165  GLN165     -0.2864
    158  CB        17.8270   56.1040   31.5360 C.3   165  GLN165      0.0394
    159  CG        18.4170   54.8510   30.8630 C.3   165  GLN165      0.0908
    160  CD        19.2450   53.9370   31.7840 C.2   165  GLN165      0.2608
    161  OE1       19.3290   54.1570   32.9660 O.2   165  GLN165     -0.2717
    162  NE2       19.8460   52.8990   31.2120 N.am  165  GLN165     -0.0878
    163  N         22.7130   58.4950   32.8360 N.3   168  ASN168     -0.1225
    164  CA        23.2430   57.3270   33.5030 C.3   168  ASN168      0.1785
    165  C         24.2330   56.6330   32.5780 C.2   168  ASN168      0.2597
    166  O         25.3480   56.2880   32.9720 O.2   168  ASN168     -0.2718
    167  CB        22.0760   56.4070   33.8850 C.3   168  ASN168      0.1169
    168  CG        22.5210   55.1450   34.5650 C.2   168  ASN168      0.2627
    169  OD1       22.9020   54.1580   33.9090 O.2   168  ASN168     -0.2716
    170  ND2       22.4840   55.1610   35.9020 N.am  168  ASN168     -0.0877
    171  N         23.8130   56.4450   31.3400 N.am  169  ILE169     -0.1980
    172  CA        24.6420   55.7990   30.3180 C.3   169  ILE169      0.1595
    173  C         25.8760   56.6830   29.9970 C.2   169  ILE169      0.2287
    174  O         26.9490   56.1830   29.6540 O.2   169  ILE169     -0.2864
    175  CB        23.8090   55.5910   28.9870 C.3   169  ILE169      0.0276
    176  CG1       23.0000   54.2990   29.0720 C.3   169  ILE169      0.0022
    177  CG2       24.7070   55.6120   27.7570 C.3   169  ILE169      0.0022
    178  CD1       21.8280   54.2110   28.0290 C.3   169  ILE169      0.0001
    179  N         27.6690   58.3620   31.9550 N.3   171  ARG171     -0.1231
    180  CA        28.6470   58.2430   33.0180 C.3   171  ARG171      0.1694
    181  C         29.3010   56.8730   33.0010 C.2   171  ARG171      0.2592
    182  O         30.5040   56.7530   33.2260 O.2   171  ARG171     -0.2718
    183  CB        27.9420   58.4300   34.3660 C.3   171  ARG171      0.0321
    184  CG        28.7500   58.0020   35.6200 C.3   171  ARG171      0.0489
    185  CD        27.8690   57.8140   36.8930 C.3   171  ARG171      0.2205
    186  NE        27.0420   56.6120   36.8240 N.pl3 171  ARG171     -0.0865
    187  CZ        26.1280   56.2660   37.7310 C.cat 171  ARG171      0.5346
    188  NH1       25.9200   57.0330   38.7890 N.pl3 171  ARG171      0.1354
    189  NH2       25.4170   55.1530   37.5800 N.pl3 171  ARG171      0.1354
    190  N         28.5020   55.8470   32.7240 N.am  172  ASP172     -0.1974
    191  CA        28.9570   54.4600   32.7690 C.3   172  ASP172      0.1709
    192  C         29.6120   53.8050   31.5510 C.2   172  ASP172      0.2293
    193  O         29.7740   52.5660   31.5270 O.2   172  ASP172     -0.2864
    194  CB        27.7800   53.6000   33.2380 C.3   172  ASP172      0.1436
    195  CG        27.2110   54.0850   34.5630 C.2   172  ASP172      0.3671
    196  OD1       27.8100   55.0000   35.1660 O.co2 172  ASP172     -0.2456
    197  OD2       26.1710   53.5590   35.0150 O.co2 172  ASP172     -0.2456
    198  N         30.4060   50.0430   31.7390 N.3   176  ASP176     -0.1239
    199  CA        29.6190   49.2700   30.7850 C.3   176  ASP176      0.1674
    200  C         30.5530   48.5130   29.8330 C.2   176  ASP176      0.2266
    201  O         30.2850   47.3690   29.4550 O.2   176  ASP176     -0.2867
    202  CB        28.6800   50.2020   29.9810 C.3   176  ASP176      0.1410
    203  CG        27.5230   50.7820   30.8230 C.2   176  ASP176      0.3668
    204  OD1       26.9100   51.7780   30.4190 O.co2 176  ASP176     -0.2456
    205  OD2       27.2030   50.2520   31.8840 O.co2 176  ASP176     -0.2456
    206  N         26.2390   51.0120   24.8500 N.3   183  TYR183     -0.1241
    207  CA        24.8890   51.4560   24.5970 C.3   183  TYR183      0.1605
    208  C         24.7520   52.5270   23.5080 C.2   183  TYR183      0.2264
    209  O         23.6590   52.7490   23.0170 O.2   183  TYR183     -0.2867
    210  CB        24.2600   51.9130   25.9110 C.3   183  TYR183      0.0534
    211  CG        23.9990   50.7850   26.8780 C.ar  183  TYR183     -0.0201
    212  CD1       22.8330   50.0360   26.8010 C.ar  183  TYR183     -0.0009
    213  CD2       24.9060   50.4830   27.8800 C.ar  183  TYR183     -0.0009
    214  CE1       22.5610   49.0030   27.7080 C.ar  183  TYR183      0.0417
    215  CE2       24.6530   49.4630   28.7940 C.ar  183  TYR183      0.0417
    216  CZ        23.4810   48.7300   28.7000 C.ar  183  TYR183      0.1957
    217  OH        23.2430   47.7190   29.5940 O.3   183  TYR183     -0.2866
    218  N         21.1710   64.8580   39.3680 N.3   248  TYR248     -0.1241
    219  CA        21.5960   63.8190   38.4530 C.3   248  TYR248      0.1605
    220  C         22.2180   64.4030   37.2090 C.2   248  TYR248      0.2264
    221  O         23.2360   63.8920   36.7080 O.2   248  TYR248     -0.2867
    222  CB        20.4120   62.9200   38.0930 C.3   248  TYR248      0.0534
    223  CG        20.8040   61.4690   37.9390 C.ar  248  TYR248     -0.0201
    224  CD1       21.0920   60.9280   36.6890 C.ar  248  TYR248     -0.0009
    225  CD2       20.9040   60.6320   39.0610 C.ar  248  TYR248     -0.0009
    226  CE1       21.4600   59.5900   36.5550 C.ar  248  TYR248      0.0417
    227  CE2       21.2750   59.3070   38.9410 C.ar  248  TYR248      0.0417
    228  CZ        21.5520   58.7870   37.6890 C.ar  248  TYR248      0.1957
    229  OH        21.9310   57.4720   37.5720 O.3   248  TYR248     -0.2866
@<TRIPOS>BOND
     1   209   208    2
     2   208   207    1
     3   207   206    1
     4   207   210    1
     5   107   108    1
     6   111   108    1
     7   111   112    1
     8   108   109    1
     9   210   211    1
    10   212   211   ar
    11   212   214   ar
    12   112   114   ar
    13   112   113   ar
    14   211   213   ar
    15   109   110    2
    16   114   116   ar
    17   113   115   ar
    18   214   216   ar
    19   177   175    1
    20   213   215   ar
    21   178   176    1
    22   116   117   ar
    23   216   215   ar
    24   216   217    1
    25   115   117   ar
    26   175   176    1
    27   175   172    1
    28   117   118    1
    29   201   200    2
    30   174   173    2
    31   200   199    1
    32   202   199    1
    33   202   203    1
    34   173   172    1
    35   172   171    1
    36   204   203   ar
    37   119   120    1
    38   199   198    1
    39   203   205   ar
    40   159   158    1
    41   159   160    1
    42   157   156    2
    43   156   155    1
    44   162   160   am
    45   125   123    1
    46   171   165   am
    47   193   192    2
    48   158   155    1
    49   123   120    1
    50   123   124    1
    51   192   191    1
    52   160   161    2
    53   120   121    1
    54   179   180    1
    55   155   154    1
    56   126   121   am
    57   126   127    1
    58    99   100    1
    59   154   148   am
    60   146   147    1
    61   165   166    2
    62   165   164    1
    63   102   101    2
    64   190   191    1
    65   190   181   am
    66   191   194    1
    67   163   164    1
    68   121   122    2
    69   130   127    1
    70   128   127    1
    71   128   129    2
    72   181   180    1
    73   181   182    2
    74   100   101    1
    75   100   103    1
    76   180   183    1
    77   148   149    2
    78   148   147    1
    79   194   195    1
    80   164   167    1
    81   147   150    1
    82   167   168    1
    83   169   168    2
    84    98    96   ar
    85    97    96   ar
    86   183   184    1
    87   103   104    1
    88   105   104    1
    89   195   197   ar
    90   195   196   ar
    91   168   170   am
    92    96    95    1
    93   150   151    1
    94   131   132    1
    95   104   106    1
    96   151   153    1
    97   151   152    1
    98   184   185    1
    99    92    95    1
   100    92    91    1
   101    92    93    1
   102    81    80   ar
   103    94    93    2
   104   132   133    1
   105   132   135    1
   106   226   224   ar
   107   226   228   ar
   108   137   135    1
   109   224   223   ar
   110   133   134    2
   111   221   220    2
   112   186   185    1
   113   186   187    2
   114   135   136    1
   115    80    82   ar
   116    80    79    1
   117    78    77    2
   118   220   219    1
   119    76    79    1
   120    76    77    1
   121    76    75    1
   122   229   228    1
   123   189   187    1
   124   228   227   ar
   125   187   188    1
   126    77    83   am
   127   223   222    1
   128   223   225   ar
   129   222   219    1
   130   219   218    1
   131   227   225   ar
   132    83    84    1
   133   138   139    1
   134    19    18   ar
   135    19    17   ar
   136    85    86    2
   137    85    84    1
   138    63    62    1
   139    61    60    2
   140    84    87    1
   141    73    72    1
   142    62    59    1
   143    18    16   ar
   144    89    88   ar
   145   140   139    1
   146   140   141    2
   147    17    15   ar
   148   142   139    1
   149   142   143    1
   150    59    60    1
   151    59    58    1
   152   144   143    1
   153    60    64   am
   154    74    72    1
   155   143   145    1
   156    72    71    2
   157    87    88    1
   158    88    90   ar
   159    67    66    2
   160    16    14   ar
   161    15    14   ar
   162    64    65    1
   163    71    70    1
   164    66    65    1
   165    65    68    1
   166    70    69    1
   167    44    42    1
   168    14    13    1
   169    41    40    2
   170    30    29   ar
   171    30    28   ar
   172    55    53   ar
   173    55    56   ar
   174    29    27   ar
   175    57    56    1
   176    68    69    1
   177    49    48    2
   178    53    51   ar
   179    42    43    1
   180    42    39    1
   181    13    10    1
   182    45    43    1
   183    56    54   ar
   184    28    26   ar
   185    40    39    1
   186    40    46   am
   187    47    48    1
   188    47    46    1
   189    47    50    1
   190    39    38    1
   191     9    10    1
   192    10    11    1
   193    27    25   ar
   194    51    50    1
   195    51    52   ar
   196    54    52   ar
   197    26    25   ar
   198    25    24    1
   199    36    35    1
   200    11    12    2
   201    37    35    1
   202    34    33    2
   203     8     7    1
   204    35    32    1
   205    32    33    1
   206    32    31    1
   207    24    21    1
   208     7     6    1
   209    20    21    1
   210     6     5    1
   211     4     3    2
   212    21    22    1
   213     2     5    1
   214     2     3    1
   215     2     1    1
   216    22    23    2
