@<TRIPOS>MOLECULE
tmp/2zcsA00.pdb
 197 184 0 0 0
SMALL
GASTEIGER

@<TRIPOS>ATOM
      1  N         55.8930    6.1380   61.6840 N.3    18  HIS18      -0.1226
      2  CA        56.0260    5.9990   60.2380 C.3    18  HIS18       0.1752
      3  C         57.3000    6.6210   59.6350 C.2    18  HIS18       0.2596
      4  O         57.8740    6.0430   58.7090 O.2    18  HIS18      -0.2718
      5  CB        54.7890    6.5610   59.5320 C.3    18  HIS18       0.0759
      6  CG        54.9300    6.6860   58.0430 C.ar   18  HIS18       0.0818
      7  ND1       54.7510    5.6270   57.1800 N.ar   18  HIS18      -0.2268
      8  CD2       55.2390    7.7530   57.2630 C.ar   18  HIS18       0.1154
      9  CE1       54.9460    6.0300   55.9370 C.ar   18  HIS18       0.1986
     10  NE2       55.2410    7.3150   55.9570 N.ar   18  HIS18      -0.2212
     11  N         57.7490    7.7740   60.1420 N.am   19  SER19      -0.1952
     12  CA        58.9400    8.4390   59.5840 C.3    19  SER19       0.1924
     13  C         59.8460    9.0810   60.6060 C.2    19  SER19       0.2314
     14  O         59.5910   10.2000   61.0790 O.2    19  SER19      -0.2863
     15  CB        58.5180    9.5210   58.5390 C.3    19  SER19       0.2116
     16  OG        59.6460   10.1970   57.9640 O.3    19  SER19      -0.2180
     17  N         61.3940   12.5760   59.1960 N.3    22  PHE22      -0.1241
     18  CA        60.5280   13.7350   59.3340 C.3    22  PHE22       0.1605
     19  C         60.2720   14.0570   60.7860 C.2    22  PHE22       0.2264
     20  O         60.3040   15.2410   61.1570 O.2    22  PHE22      -0.2867
     21  CB        59.2490   13.5360   58.5190 C.3    22  PHE22       0.0534
     22  CG        59.5280   13.5440   57.0650 C.ar   22  PHE22      -0.0203
     23  CD1       60.4790   14.4380   56.5640 C.ar   22  PHE22      -0.0042
     24  CD2       59.0140   12.5720   56.2130 C.ar   22  PHE22      -0.0042
     25  CE1       60.9250   14.3510   55.2620 C.ar   22  PHE22      -0.0003
     26  CE2       59.4610   12.4840   54.9070 C.ar   22  PHE22      -0.0003
     27  CZ        60.4140   13.3650   54.4340 C.ar   22  PHE22      -0.0000
     28  N         61.0640   17.8320   62.2140 N.3    26  PHE26      -0.1241
     29  CA        59.9180   18.6390   62.6080 C.3    26  PHE26       0.1605
     30  C         59.6660   18.6670   64.0890 C.2    26  PHE26       0.2264
     31  O         59.0810   19.6040   64.5590 O.2    26  PHE26      -0.2867
     32  CB        58.6480   18.2450   61.8170 C.3    26  PHE26       0.0534
     33  CG        58.7500   18.5480   60.3440 C.ar   26  PHE26      -0.0203
     34  CD1       58.8700   19.8680   59.9020 C.ar   26  PHE26      -0.0042
     35  CD2       58.8800   17.5280   59.4130 C.ar   26  PHE26      -0.0042
     36  CE1       59.1340   20.1570   58.5730 C.ar   26  PHE26      -0.0003
     37  CE2       59.1440   17.8230   58.0730 C.ar   26  PHE26      -0.0003
     38  CZ        59.2760   19.1330   57.6570 C.ar   26  PHE26      -0.0000
     39  N         50.2360   15.5670   59.4720 N.3    41  TYR41      -0.1241
     40  CA        50.9320   14.3560   59.0830 C.3    41  TYR41       0.1605
     41  C         50.1520   13.1010   59.4000 C.2    41  TYR41       0.2264
     42  O         50.0690   12.1950   58.5730 O.2    41  TYR41      -0.2867
     43  CB        52.2800   14.2530   59.8070 C.3    41  TYR41       0.0534
     44  CG        53.2400   13.2930   59.1460 C.ar   41  TYR41      -0.0201
     45  CD1       53.2950   11.9420   59.4930 C.ar   41  TYR41      -0.0009
     46  CD2       54.0870   13.7540   58.1380 C.ar   41  TYR41      -0.0009
     47  CE1       54.1940   11.0610   58.8330 C.ar   41  TYR41       0.0417
     48  CE2       54.9670   12.9160   57.4780 C.ar   41  TYR41       0.0417
     49  CZ        55.0240   11.5690   57.8220 C.ar   41  TYR41       0.1957
     50  OH        55.9280   10.7850   57.1230 O.3    41  TYR41      -0.2866
     51  N         48.8490   10.2250   56.9120 N.3    45  ARG45      -0.1245
     52  CA        49.1880    8.8200   57.1380 C.3    45  ARG45       0.1563
     53  C         47.9780    7.8710   57.1430 C.2    45  ARG45       0.2260
     54  O         48.0370    6.7670   56.6110 O.2    45  ARG45      -0.2867
     55  CB        49.9330    8.7300   58.4700 C.3    45  ARG45       0.0307
     56  CG        51.4130    8.9840   58.2690 C.3    45  ARG45       0.0489
     57  CD        52.0880    7.6960   57.7860 C.3    45  ARG45       0.2205
     58  NE        52.1340    7.5840   56.3380 N.pl3  45  ARG45      -0.0865
     59  CZ        51.9370    6.4480   55.6820 C.cat  45  ARG45       0.5346
     60  NH1       51.6740    5.3330   56.3530 N.pl3  45  ARG45       0.1354
     61  NH2       52.0060    6.4320   54.3640 N.pl3  45  ARG45       0.1354
     62  N         46.7980    7.4210   53.6350 N.3    48  ASP48      -0.1239
     63  CA        47.6510    6.4860   52.9180 C.3    48  ASP48       0.1674
     64  C         47.4210    4.9980   53.2950 C.2    48  ASP48       0.2266
     65  O         47.5680    4.1140   52.4530 O.2    48  ASP48      -0.2867
     66  CB        49.1410    6.7580   53.1520 C.3    48  ASP48       0.1410
     67  CG        49.6160    8.0690   52.5740 C.2    48  ASP48       0.3668
     68  OD1       48.8760    8.6580   51.7570 O.co2  48  ASP48      -0.2456
     69  OD2       50.7530    8.5130   52.9180 O.co2  48  ASP48      -0.2456
     70  N         50.6010   12.3780   46.0090 N.3   133  VAL133     -0.1231
     71  CA        50.7940   11.7800   47.3170 C.3   133  VAL133      0.1692
     72  C         51.6680   12.5770   48.2040 C.2   133  VAL133      0.2591
     73  O         51.6340   12.3990   49.3920 O.2   133  VAL133     -0.2718
     74  CB        51.3870   10.3570   47.2530 C.3   133  VAL133      0.0266
     75  CG1       50.4470    9.4390   46.4920 C.3   133  VAL133      0.0020
     76  CG2       52.7610   10.3730   46.5780 C.3   133  VAL133      0.0020
     77  N         52.4020   13.5210   47.6560 N.am  134  ALA134     -0.1980
     78  CA        53.3350   14.2650   48.5070 C.3   134  ALA134      0.1597
     79  C         53.3720   15.7680   48.2240 C.2   134  ALA134      0.2287
     80  O         53.5450   16.5120   49.1580 O.2   134  ALA134     -0.2864
     81  CB        54.7190   13.7040   48.3460 C.3   134  ALA134      0.0319
     82  N         50.9430   17.1560   50.3060 N.3   137  VAL137     -0.1231
     83  CA        51.2980   17.2360   51.7050 C.3   137  VAL137      0.1692
     84  C         52.0880   18.5160   51.9480 C.2   137  VAL137      0.2592
     85  O         51.8580   19.1890   52.9490 O.2   137  VAL137     -0.2718
     86  CB        52.1030   15.9990   52.1320 C.3   137  VAL137      0.0266
     87  CG1       52.5340   16.1280   53.5530 C.3   137  VAL137      0.0020
     88  CG2       51.2400   14.7380   51.9480 C.3   137  VAL137      0.0020
     89  N         53.0020   18.8530   51.0390 N.am  138  GLY138     -0.1957
     90  CA        53.7230   20.1320   51.1950 C.3   138  GLY138      0.1869
     91  C         52.7370   21.3180   51.1700 C.2   138  GLY138      0.2309
     92  O         52.8650   22.3450   51.9100 O.2   138  GLY138     -0.2863
     93  N         50.9610   21.7230   54.5850 N.3   141  LEU141     -0.1245
     94  CA        51.8860   22.2250   55.6350 C.3   141  LEU141      0.1561
     95  C         52.3200   23.6720   55.4600 C.2   141  LEU141      0.2260
     96  O         52.8460   24.2950   56.3900 O.2   141  LEU141     -0.2867
     97  CB        53.1840   21.3900   55.6920 C.3   141  LEU141      0.0270
     98  CG        53.0400   19.9070   56.0730 C.3   141  LEU141      0.0019
     99  CD1       54.3530   19.1740   55.7390 C.3   141  LEU141      0.0001
    100  CD2       52.6960   19.7530   57.5550 C.3   141  LEU141      0.0001
    101  N         54.3190   26.5160   58.0910 N.3   145  LEU145     -0.1245
    102  CA        55.7400   26.7970   58.0350 C.3   145  LEU145      0.1561
    103  C         56.0900   28.1490   57.4690 C.2   145  LEU145      0.2260
    104  O         57.2700   28.3870   57.1900 O.2   145  LEU145     -0.2867
    105  CB        56.4210   25.7010   57.1840 C.3   145  LEU145      0.0270
    106  CG        56.1120   24.2730   57.6810 C.3   145  LEU145      0.0019
    107  CD1       56.8160   23.2490   56.8340 C.3   145  LEU145      0.0001
    108  CD2       56.4920   24.1410   59.1220 C.3   145  LEU145      0.0001
    109  N         57.1620   24.4090   48.5960 N.3   157  ALA157     -0.1245
    110  CA        56.7130   23.3200   49.4670 C.3   157  ALA157      0.1562
    111  C         56.2720   22.1140   48.6480 C.2   157  ALA157      0.2260
    112  O         56.5380   20.9490   49.0120 O.2   157  ALA157     -0.2867
    113  CB        55.5360   23.8110   50.3470 C.3   157  ALA157      0.0290
    114  N         59.3420   20.5870   47.0370 N.3   160  LEU160     -0.1231
    115  CA        60.0870   19.8220   48.0140 C.3   160  LEU160      0.1693
    116  C         59.3950   18.4730   48.2200 C.2   160  LEU160      0.2592
    117  O         60.0260   17.4130   48.1680 O.2   160  LEU160     -0.2718
    118  CB        60.1960   20.5420   49.3530 C.3   160  LEU160      0.0284
    119  CG        60.9580   19.6950   50.3890 C.3   160  LEU160      0.0019
    120  CD1       62.3530   19.3950   49.7870 C.3   160  LEU160      0.0001
    121  CD2       61.0760   20.3800   51.7360 C.3   160  LEU160      0.0001
    122  N         58.1020   18.5240   48.4860 N.am  161  GLY161     -0.1957
    123  CA        57.3170   17.3180   48.6590 C.3   161  GLY161      0.1869
    124  C         57.4830   16.3310   47.5240 C.2   161  GLY161      0.2309
    125  O         57.6530   15.1260   47.7440 O.2   161  GLY161     -0.2863
    126  N         61.0270   14.6840   47.6960 N.3   164  LEU164     -0.1231
    127  CA        61.1280   13.7280   48.7620 C.3   164  LEU164      0.1693
    128  C         60.4280   12.4150   48.3450 C.2   164  LEU164      0.2591
    129  O         60.9270   11.2850   48.6390 O.2   164  LEU164     -0.2718
    130  CB        60.5070   14.2940   50.0430 C.3   164  LEU164      0.0284
    131  CG        61.1370   15.5830   50.5950 C.3   164  LEU164      0.0019
    132  CD1       60.3170   16.1560   51.7880 C.3   164  LEU164      0.0001
    133  CD2       62.5290   15.2900   51.0550 C.3   164  LEU164      0.0001
    134  N         59.2730   12.5310   47.6880 N.am  165  GLN165     -0.1979
    135  CA        58.6020   11.3230   47.2290 C.3   165  GLN165      0.1601
    136  C         59.4960   10.5600   46.2140 C.2   165  GLN165      0.2287
    137  O         59.5650    9.3370   46.2540 O.2   165  GLN165     -0.2864
    138  CB        57.2800   11.6560   46.5250 C.3   165  GLN165      0.0394
    139  CG        56.4790   10.4290   46.1390 C.3   165  GLN165      0.0908
    140  CD        56.1370    9.5260   47.3290 C.2   165  GLN165      0.2608
    141  OE1       55.9390    9.9890   48.4600 O.2   165  GLN165     -0.2717
    142  NE2       56.0420    8.2150   47.0690 N.am  165  GLN165     -0.0878
    143  N         62.0390    8.6690   47.9970 N.3   168  ASN168     -0.1240
    144  CA        61.4440    7.4840   48.6280 C.3   168  ASN168      0.1653
    145  C         61.2930    6.3800   47.5740 C.2   168  ASN168      0.2266
    146  O         61.5980    5.2200   47.8310 O.2   168  ASN168     -0.2867
    147  CB        60.0480    7.8060   49.2130 C.3   168  ASN168      0.1155
    148  CG        59.3420    6.5850   49.7660 C.2   168  ASN168      0.2627
    149  OD1       59.5090    6.2620   50.9450 O.2   168  ASN168     -0.2716
    150  ND2       58.5820    5.8720   48.9300 N.am  168  ASN168     -0.0877
    151  N         64.5110    4.7700   46.9960 N.3   171  ARG171     -0.1245
    152  CA        65.0210    3.9590   48.0920 C.3   171  ARG171      0.1563
    153  C         64.2630    2.6450   48.1260 C.2   171  ARG171      0.2260
    154  O         64.8010    1.6130   48.5200 O.2   171  ARG171     -0.2867
    155  CB        64.8230    4.6700   49.4550 C.3   171  ARG171      0.0307
    156  CG        65.1150    3.7620   50.6730 C.3   171  ARG171      0.0489
    157  CD        64.5080    4.2630   51.9850 C.3   171  ARG171      0.2205
    158  NE        63.0610    4.1480   51.9360 N.pl3 171  ARG171     -0.0865
    159  CZ        62.2170    4.9260   52.6250 C.cat 171  ARG171      0.5346
    160  NH1       62.6790    5.8770   53.4370 N.pl3 171  ARG171      0.1354
    161  NH2       60.9060    4.7840   52.4510 N.pl3 171  ARG171      0.1354
    162  N         59.9970   30.4880   53.5860 N.3   233  PHE233     -0.1241
    163  CA        59.5200   29.9370   54.8470 C.3   233  PHE233      0.1605
    164  C         59.8560   30.8190   56.0420 C.2   233  PHE233      0.2264
    165  O         60.7970   31.5960   55.9970 O.2   233  PHE233     -0.2867
    166  CB        60.1080   28.5330   55.0440 C.3   233  PHE233      0.0534
    167  CG        59.6410   27.5550   54.0240 C.ar  233  PHE233     -0.0203
    168  CD1       58.2840   27.2310   53.9450 C.ar  233  PHE233     -0.0042
    169  CD2       60.5430   26.9660   53.1350 C.ar  233  PHE233     -0.0042
    170  CE1       57.8260   26.3360   52.9940 C.ar  233  PHE233     -0.0003
    171  CE2       60.0850   26.0540   52.1620 C.ar  233  PHE233     -0.0003
    172  CZ        58.7250   25.7430   52.0940 C.ar  233  PHE233     -0.0000
    173  N         63.3450   22.7570   57.9040 N.3   241  ILE241     -0.1245
    174  CA        63.0370   22.2750   56.5610 C.3   241  ILE241      0.1561
    175  C         64.3220   21.8990   55.8570 C.2   241  ILE241      0.2260
    176  O         64.3540   20.9300   55.0900 O.2   241  ILE241     -0.2867
    177  CB        62.2450   23.3240   55.7650 C.3   241  ILE241      0.0252
    178  CG1       60.8290   23.4180   56.3590 C.3   241  ILE241      0.0019
    179  CG2       62.1690   22.9350   54.3200 C.3   241  ILE241      0.0019
    180  CD1       60.0880   24.6720   56.0700 C.3   241  ILE241      0.0001
    181  N         65.2580   18.5790   57.2820 N.3   244  ALA244     -0.1245
    182  CA        64.3460   17.5630   56.7390 C.3   244  ALA244      0.1562
    183  C         64.8300   17.1690   55.3380 C.2   244  ALA244      0.2260
    184  O         64.9900   16.0170   55.0280 O.2   244  ALA244     -0.2867
    185  CB        62.8930   18.1190   56.6390 C.3   244  ALA244      0.0290
    186  N         66.7390   13.6340   54.1460 N.3   248  TYR248     -0.1241
    187  CA        66.0940   12.8310   53.1450 C.3   248  TYR248      0.1605
    188  C         66.9610   12.6280   51.9070 C.2   248  TYR248      0.2264
    189  O         66.9420   11.5650   51.2900 O.2   248  TYR248     -0.2867
    190  CB        64.7250   13.4460   52.7780 C.3   248  TYR248      0.0534
    191  CG        63.6440   12.4160   52.8470 C.ar  248  TYR248     -0.0201
    192  CD1       63.2390   11.7340   51.7100 C.ar  248  TYR248     -0.0009
    193  CD2       63.1720   11.9780   54.0660 C.ar  248  TYR248     -0.0009
    194  CE1       62.4080   10.6270   51.7940 C.ar  248  TYR248      0.0417
    195  CE2       62.3450   10.8700   54.1670 C.ar  248  TYR248      0.0417
    196  CZ        61.9690   10.1910   53.0320 C.ar  248  TYR248      0.1957
    197  OH        61.1980    9.0400   53.1090 O.3   248  TYR248     -0.2866
@<TRIPOS>BOND
     1    70    71    1
     2   139   138    1
     3   139   140    1
     4   136   137    2
     5   136   135    1
     6    75    74    1
     7   138   135    1
     8    76    74    1
     9   151   152    1
    10   114   115    1
    11   142   140   am
    12   135   134    1
    13    74    71    1
    14    71    72    1
    15   140   141    2
    16   124   125    2
    17   124   123    1
    18   145   146    2
    19   145   144    1
    20    77    72   am
    21    77    78    1
    22   134   128   am
    23   126   127    1
    24   143   144    1
    25   115   116    1
    26   115   118    1
    27   152   153    1
    28   152   155    1
    29   153   154    2
    30   117   116    2
    31    72    73    2
    32   116   122   am
    33    79    78    1
    34    79    80    2
    35   128   129    2
    36   128   127    1
    37    81    78    1
    38   122   123    1
    39   109   110    1
    40   144   147    1
    41   111   112    2
    42   111   110    1
    43   127   130    1
    44   150   148   am
    45   147   148    1
    46   118   119    1
    47   155   156    1
    48   110   113    1
    49   148   149    2
    50   120   119    1
    51   130   131    1
    52    82    83    1
    53   119   121    1
    54   131   133    1
    55   131   132    1
    56   156   157    1
    57    89    90    1
    58    89    84   am
    59    91    90    1
    60    91    92    2
    61   189   188    2
    62    83    84    1
    63    83    86    1
    64   192   194   ar
    65   192   191   ar
    66    68    67   ar
    67   194   196   ar
    68   188   187    1
    69   158   157    1
    70   158   159    2
    71    88    86    1
    72    84    85    2
    73   172   171   ar
    74   172   170   ar
    75    86    87    1
    76   171   169   ar
    77   161   159    1
    78    65    64    2
    79    67    69   ar
    80    67    66    1
    81   159   160    1
    82   190   191    1
    83   190   187    1
    84   191   193   ar
    85    63    66    1
    86    63    64    1
    87    63    62    1
    88   170   168   ar
    89   196   197    1
    90   196   195   ar
    91   169   167   ar
    92   187   186    1
    93   162   163    1
    94   168   167   ar
    95   167   166    1
    96   193   195   ar
    97   179   177    1
    98    61    59    1
    99    27    26   ar
   100    27    25   ar
   101    93    94    1
   102   163   166    1
   103   163   164    1
   104    26    24   ar
   105   184   183    2
   106   176   175    2
   107    25    23   ar
   108   183   182    1
   109    95    94    1
   110    95    96    2
   111    94    97    1
   112    59    58    2
   113    59    60    1
   114    97    98    1
   115    99    98    1
   116   177   178    1
   117   177   174    1
   118   175   174    1
   119     9    10   ar
   120     9     7   ar
   121    10     8   ar
   122   165   164    2
   123   180   178    1
   124    98   100    1
   125    24    22   ar
   126    58    57    1
   127   174   173    1
   128    23    22   ar
   129    54    53    2
   130   185   182    1
   131   182   181    1
   132   107   106    1
   133    51    52    1
   134    22    21    1
   135    50    49    1
   136    52    53    1
   137    52    55    1
   138     7     6   ar
   139   105   106    1
   140   105   102    1
   141   104   103    2
   142     8     6   ar
   143   103   102    1
   144    48    49   ar
   145    48    46   ar
   146    38    37   ar
   147    38    36   ar
   148   106   108    1
   149    57    56    1
   150    49    47   ar
   151    16    15    1
   152   102   101    1
   153     6     5    1
   154    37    35   ar
   155    46    44   ar
   156    56    55    1
   157    21    18    1
   158    15    12    1
   159    36    34   ar
   160    42    41    2
   161     4     3    2
   162    47    45   ar
   163    40    41    1
   164    40    39    1
   165    40    43    1
   166    44    45   ar
   167    44    43    1
   168    17    18    1
   169    18    19    1
   170    35    33   ar
   171     5     2    1
   172    12    11    1
   173    12    13    1
   174     3    11   am
   175     3     2    1
   176    34    33   ar
   177     2     1    1
   178    33    32    1
   179    13    14    2
   180    19    20    2
   181    32    29    1
   182    28    29    1
   183    29    30    1
   184    30    31    2
