@<TRIPOS>MOLECULE
tmp/2zcyY00.pdb
 121 114 0 0 0
SMALL
GASTEIGER

@<TRIPOS>ATOM
      1  N         57.0750 -152.0740    7.3990 N.3     1  THR1       -0.1218
      2  CA        57.2530 -153.1770    6.4200 C.3     1  THR1        0.1862
      3  C         56.5930 -152.9280    5.0930 C.2     1  THR1        0.2287
      4  O         55.4840 -152.3960    5.0210 O.2     1  THR1       -0.2866
      5  CB        56.6810 -154.4900    6.9440 C.3     1  THR1        0.1770
      6  OG1       57.4830 -154.9340    8.0300 O.3     1  THR1       -0.2211
      7  CG2       56.6970 -155.5610    5.8610 C.3     1  THR1        0.0375
      8  N         63.3120 -154.0210    7.5590 N.3    19  ARG19      -0.1231
      9  CA        63.2600 -153.3880    8.8640 C.3    19  ARG19       0.1694
     10  C         62.2570 -154.0000    9.8350 C.2    19  ARG19       0.2592
     11  O         61.1150 -154.3140    9.4820 O.2    19  ARG19      -0.2718
     12  CB        62.9750 -151.8930    8.7150 C.3    19  ARG19       0.0321
     13  CG        62.7730 -151.1800   10.0470 C.3    19  ARG19       0.0489
     14  CD        62.5990 -149.6950    9.8620 C.3    19  ARG19       0.2205
     15  NE        63.8360 -149.0700    9.4160 N.pl3  19  ARG19      -0.0865
     16  CZ        63.9380 -147.7920    9.0770 C.cat  19  ARG19       0.5346
     17  NH1       62.8700 -147.0110    9.1320 N.pl3  19  ARG19       0.1354
     18  NH2       65.1050 -147.2930    8.6880 N.pl3  19  ARG19       0.1354
     19  N         62.7140 -154.1650   11.0700 N.am   20  ALA20      -0.1966
     20  CA        61.8830 -154.7080   12.1310 C.3    20  ALA20       0.1728
     21  C         61.7650 -153.6220   13.1860 C.2    20  ALA20       0.2617
     22  O         62.7610 -153.0350   13.6000 O.2    20  ALA20      -0.2715
     23  CB        62.5200 -155.9600   12.7250 C.3    20  ALA20       0.0334
     24  N         60.5390 -153.3520   13.6050 N.am   21  THR21      -0.1937
     25  CA        60.2840 -152.3310   14.6020 C.3    21  THR21       0.2028
     26  C         59.4840 -152.8710   15.7750 C.2    21  THR21       0.2642
     27  O         58.6180 -153.7280   15.6190 O.2    21  THR21      -0.2714
     28  CB        59.5100 -151.1450   13.9870 C.3    21  THR21       0.1808
     29  OG1       58.3870 -151.6390   13.2390 O.3    21  THR21      -0.2208
     30  CG2       60.4150 -150.3390   13.0650 C.3    21  THR21       0.0379
     31  N         59.8120 -152.3800   16.9600 N.am   22  ALA22      -0.1963
     32  CA        59.1050 -152.7450   18.1800 C.3    22  ALA22       0.1728
     33  C         58.5850 -151.3810   18.6000 C.2    22  ALA22       0.2616
     34  O         59.2420 -150.6510   19.3400 O.2    22  ALA22      -0.2715
     35  CB        60.0710 -153.2980   19.2160 C.3    22  ALA22       0.0334
     36  N         57.4110 -151.0260   18.0960 N.am   23  GLY23      -0.1955
     37  CA        56.8700 -149.7180   18.3980 C.3    23  GLY23       0.1869
     38  C         57.5540 -148.7400   17.4600 C.2    23  GLY23       0.2309
     39  O         57.4750 -148.8890   16.2410 O.2    23  GLY23      -0.2863
     40  N         64.2760 -152.2780   15.7590 N.3    27  ALA27      -0.1245
     41  CA        64.8880 -153.4900   16.2760 C.3    27  ALA27       0.1562
     42  C         65.9820 -154.0300   15.3590 C.2    27  ALA27       0.2260
     43  O         67.0570 -154.4270   15.8210 O.2    27  ALA27      -0.2867
     44  CB        63.8210 -154.5380   16.4830 C.3    27  ALA27       0.0290
     45  N         66.4540 -157.9690    8.5720 N.3    31  VAL31      -0.1245
     46  CA        65.5660 -159.1240    8.6720 C.3    31  VAL31       0.1561
     47  C         65.2240 -159.6840    7.2990 C.2    31  VAL31       0.2260
     48  O         65.0150 -158.9150    6.3600 O.2    31  VAL31      -0.2867
     49  CB        64.2440 -158.7380    9.3620 C.3    31  VAL31       0.0252
     50  CG1       63.3640 -159.9630    9.5120 C.3    31  VAL31       0.0019
     51  CG2       64.5330 -158.1020   10.7110 C.3    31  VAL31       0.0019
     52  N         62.6260 -160.9300    5.0830 N.3    33  LYS33      -0.1245
     53  CA        61.1750 -160.9830    4.9860 C.3    33  LYS33       0.1561
     54  C         60.6720 -161.9080    3.8950 C.2    33  LYS33       0.2260
     55  O         59.4760 -161.9370    3.5970 O.2    33  LYS33      -0.2867
     56  CB        60.6120 -159.5730    4.7980 C.3    33  LYS33       0.0271
     57  CG        60.9970 -158.6620    5.9370 C.3    33  LYS33       0.0035
     58  CD        60.2640 -157.3480    5.8940 C.3    33  LYS33       0.0206
     59  CE        60.8020 -156.4140    6.9600 C.3    33  LYS33       0.1093
     60  NZ        59.9840 -155.1870    7.0720 N.3    33  LYS33      -0.1314
     61  N         56.8090 -161.7950    4.2630 N.3    45  MET45      -0.1230
     62  CA        56.3710 -161.5440    5.6280 C.3    45  MET45       0.1702
     63  C         55.9640 -160.1000    5.9130 C.2    45  MET45       0.2592
     64  O         56.6610 -159.1490    5.5580 O.2    45  MET45      -0.2718
     65  CB        57.4650 -161.9550    6.6070 C.3    45  MET45       0.0401
     66  CG        58.0260 -163.3340    6.3430 C.3    45  MET45       0.0596
     67  SD        58.9920 -163.9480    7.7180 S.3    45  MET45      -0.1393
     68  CE        59.9390 -162.4360    8.2100 C.3    45  MET45       0.0692
     69  N         54.8170 -159.9550    6.5620 N.am   46  ALA46      -0.1966
     70  CA        54.2880 -158.6550    6.9480 C.3    46  ALA46       0.1728
     71  C         53.4350 -158.9290    8.1790 C.2    46  ALA46       0.2617
     72  O         52.7620 -159.9510    8.2470 O.2    46  ALA46      -0.2715
     73  CB        53.4470 -158.0730    5.8330 C.3    46  ALA46       0.0334
     74  N         53.4690 -158.0200    9.1490 N.am   47  GLY47      -0.1940
     75  CA        52.7170 -158.2180   10.3790 C.3    47  GLY47       0.2014
     76  C         53.6880 -158.6540   11.4680 C.2    47  GLY47       0.2639
     77  O         54.7710 -158.0800   11.6000 O.2    47  GLY47      -0.2714
     78  N         53.3280 -159.6810   12.2320 N.am   48  GLY48      -0.1939
     79  CA        54.2110 -160.1490   13.2850 C.3    48  GLY48       0.2014
     80  C         55.3170 -161.0510   12.7670 C.2    48  GLY48       0.2639
     81  O         55.0420 -162.0750   12.1380 O.2    48  GLY48      -0.2714
     82  N         56.5680 -160.6810   13.0370 N.am   49  ALA49      -0.1963
     83  CA        57.7130 -161.4630   12.5810 C.3    49  ALA49       0.1728
     84  C         57.6130 -162.9200   13.0130 C.2    49  ALA49       0.2616
     85  O         57.5930 -163.8270   12.1760 O.2    49  ALA49      -0.2715
     86  CB        58.9860 -160.8570   13.1090 C.3    49  ALA49       0.0334
     87  N         57.5570 -163.1460   14.3210 N.am   50  ALA50      -0.1963
     88  CA        57.4500 -164.4950   14.8430 C.3    50  ALA50       0.1728
     89  C         56.3640 -165.2740   14.1070 C.2    50  ALA50       0.2616
     90  O         56.6410 -166.3370   13.5610 O.2    50  ALA50      -0.2715
     91  CB        57.1500 -164.4580   16.3280 C.3    50  ALA50       0.0334
     92  N         55.1410 -164.7390   14.0670 N.am   51  ASP51      -0.1971
     93  CA        54.0270 -165.4220   13.4090 C.3    51  ASP51       0.1709
     94  C         54.3130 -165.8590   11.9800 C.2    51  ASP51       0.2293
     95  O         54.1410 -167.0290   11.6460 O.2    51  ASP51      -0.2864
     96  CB        52.7800 -164.5510   13.4360 C.3    51  ASP51       0.1436
     97  CG        52.1330 -164.5060   14.8040 C.2    51  ASP51       0.3671
     98  OD1       51.1370 -163.7690   14.9630 O.co2  51  ASP51      -0.2456
     99  OD2       52.6080 -165.2070   15.7200 O.co2  51  ASP51      -0.2456
    100  N         51.7810 -154.6100    3.8290 N.3   130  GLY130     -0.1210
    101  CA        52.5680 -153.9890    4.8790 C.3   130  GLY130      0.1956
    102  C         52.2070 -152.5330    5.1270 C.2   130  GLY130      0.2612
    103  O         51.3930 -151.9520    4.4040 O.2   130  GLY130     -0.2717
    104  N         52.8070 -151.9380    6.1550 N.am  131  SER131     -0.1952
    105  CA        52.5360 -150.5450    6.4720 C.3   131  SER131      0.1924
    106  C         52.9600 -149.6310    5.3310 C.2   131  SER131      0.2314
    107  O         52.4910 -148.5010    5.2180 O.2   131  SER131     -0.2863
    108  CB        53.2570 -150.1430    7.7590 C.3   131  SER131      0.2116
    109  OG        54.4190 -150.9180    7.9520 O.3   131  SER131     -0.2180
    110  N         58.2020 -147.1740    9.2390 N.3   170  TYR170     -0.1241
    111  CA        58.4160 -148.5630    9.6280 C.3   170  TYR170      0.1605
    112  C         59.1180 -149.4290    8.5870 C.2   170  TYR170      0.2264
    113  O         59.4470 -150.5870    8.8570 O.2   170  TYR170     -0.2867
    114  CB        57.0810 -149.1930   10.0340 C.3   170  TYR170      0.0534
    115  CG        56.4500 -148.4370   11.1660 C.ar  170  TYR170     -0.0201
    116  CD1       57.2220 -148.0280   12.2560 C.ar  170  TYR170     -0.0009
    117  CD2       55.1110 -148.0690   11.1310 C.ar  170  TYR170     -0.0009
    118  CE1       56.6820 -147.2640   13.2810 C.ar  170  TYR170      0.0417
    119  CE2       54.5530 -147.3020   12.1540 C.ar  170  TYR170      0.0417
    120  CZ        55.3460 -146.9020   13.2240 C.ar  170  TYR170      0.1957
    121  OH        54.8090 -146.1290   14.2300 O.3   170  TYR170     -0.2866
@<TRIPOS>BOND
     1    55    54    2
     2   100   101    1
     3    54    53    1
     4    61    62    1
     5   103   102    2
     6    56    53    1
     7    56    57    1
     8   101   102    1
     9    53    52    1
    10     4     3    2
    11     3     2    1
    12   102   104   am
    13   107   106    2
    14   106   105    1
    15    64    63    2
    16    62    63    1
    17    62    65    1
    18    73    70    1
    19     7     5    1
    20    58    57    1
    21    58    59    1
    22    63    69   am
    23   104   105    1
    24    66    65    1
    25    66    67    1
    26    48    47    2
    27     2     5    1
    28     2     1    1
    29   105   108    1
    30    69    70    1
    31     5     6    1
    32    70    71    1
    33    59    60    1
    34    47    46    1
    35     8     9    1
    36    67    68    1
    37   108   109    1
    38    71    72    2
    39    71    74   am
    40    45    46    1
    41   112   113    2
    42   112   111    1
    43    46    49    1
    44    18    16    1
    45    12     9    1
    46    12    13    1
    47     9    10    1
    48    16    17    1
    49    16    15    2
    50    74    75    1
    51   110   111    1
    52    49    50    1
    53    49    51    1
    54    15    14    1
    55    11    10    2
    56   111   114    1
    57    10    19   am
    58    14    13    1
    59   114   115    1
    60    75    76    1
    61    19    20    1
    62   117   115   ar
    63   117   119   ar
    64   115   116   ar
    65    76    77    2
    66    76    78   am
    67    95    94    2
    68    94    93    1
    69    20    23    1
    70    20    21    1
    71    81    80    2
    72   119   120   ar
    73    85    84    2
    74    78    79    1
    75   116   118   ar
    76    83    84    1
    77    83    82    1
    78    83    86    1
    79    80    82   am
    80    80    79    1
    81    84    87   am
    82    30    28    1
    83    21    22    2
    84    21    24   am
    85   120   118   ar
    86   120   121    1
    87    29    28    1
    88    93    96    1
    89    93    92    1
    90    96    97    1
    91    90    89    2
    92    24    25    1
    93    28    25    1
    94    92    89   am
    95    89    88    1
    96    87    88    1
    97    25    26    1
    98    97    98   ar
    99    97    99   ar
   100    88    91    1
   101    42    43    2
   102    42    41    1
   103    27    26    2
   104    40    41    1
   105    26    31   am
   106    39    38    2
   107    41    44    1
   108    31    32    1
   109    38    37    1
   110    36    37    1
   111    36    33   am
   112    32    33    1
   113    32    35    1
   114    33    34    2
