@<TRIPOS>MOLECULE
tmp/2zcyN00.pdb
 124 115 0 0 0
SMALL
GASTEIGER

@<TRIPOS>ATOM
      1  N         43.9960 -143.8120   63.1820 N.3     1  THR1       -0.1218
      2  CA        43.8170 -142.6720   64.1200 C.3     1  THR1        0.1862
      3  C         42.7750 -142.9630   65.1850 C.2     1  THR1        0.2287
      4  O         41.6810 -143.4440   64.8860 O.2     1  THR1       -0.2866
      5  CB        43.4140 -141.3910   63.3610 C.3     1  THR1        0.1770
      6  OG1       44.5430 -140.9290   62.6230 O.3     1  THR1       -0.2211
      7  CG2       42.9920 -140.2970   64.3220 C.3     1  THR1        0.0375
      8  N         49.9470 -141.5120   65.4770 N.3    19  ARG19      -0.1231
      9  CA        50.3510 -142.1170   64.2200 C.3    19  ARG19       0.1694
     10  C         49.6870 -141.5380   62.9740 C.2    19  ARG19       0.2593
     11  O         48.4620 -141.4650   62.8950 O.2    19  ARG19      -0.2718
     12  CB        50.1000 -143.6260   64.2950 C.3    19  ARG19       0.0321
     13  CG        50.3160 -144.3850   63.0040 C.3    19  ARG19       0.0489
     14  CD        50.2210 -145.8890   63.2320 C.3    19  ARG19       0.2205
     15  NE        51.4020 -146.3850   63.9320 N.pl3  19  ARG19      -0.0865
     16  CZ        51.6370 -147.6630   64.2140 C.cat  19  ARG19       0.5346
     17  NH1       50.7670 -148.6010   63.8640 N.pl3  19  ARG19       0.1354
     18  NH2       52.7570 -148.0070   64.8330 N.pl3  19  ARG19       0.1354
     19  N         50.5050 -141.0970   62.0210 N.am   20  THR20      -0.1939
     20  CA        49.9900 -140.5980   60.7540 C.3    20  THR20       0.2028
     21  C         50.5260 -141.5850   59.7240 C.2    20  THR20       0.2643
     22  O         51.6840 -142.0050   59.7940 O.2    20  THR20      -0.2714
     23  CB        50.5000 -139.1850   60.3760 C.3    20  THR20       0.1808
     24  OG1       51.9050 -139.2350   60.1410 O.3    20  THR20      -0.2208
     25  CG2       50.2330 -138.2090   61.4640 C.3    20  THR20       0.0379
     26  N         49.6860 -141.9430   58.7610 N.am   21  THR21      -0.1936
     27  CA        50.0780 -142.9110   57.7530 C.3    21  THR21       0.2028
     28  C         49.8050 -142.5290   56.3050 C.2    21  THR21       0.2643
     29  O         49.0190 -141.6290   56.0060 O.2    21  THR21      -0.2714
     30  CB        49.3580 -144.2260   58.0170 C.3    21  THR21       0.1808
     31  OG1       47.9950 -143.9400   58.3590 O.3    21  THR21      -0.2208
     32  CG2       50.0100 -144.9880   59.1510 C.3    21  THR21       0.0379
     33  N         50.4890 -143.2430   55.4200 N.am   22  THR22      -0.1936
     34  CA        50.3570 -143.1350   53.9650 C.3    22  THR22       0.2028
     35  C         50.4960 -144.5960   53.5890 C.2    22  THR22       0.2642
     36  O         51.6050 -145.1120   53.4470 O.2    22  THR22      -0.2714
     37  CB        51.5110 -142.3720   53.3090 C.3    22  THR22       0.1808
     38  OG1       52.7380 -142.7290   53.9550 O.3    22  THR22      -0.2208
     39  CG2       51.3010 -140.8830   53.4010 C.3    22  THR22       0.0379
     40  N         49.3690 -145.2740   53.4590 N.am   23  GLY23      -0.1954
     41  CA        49.4360 -146.6810   53.1500 C.3    23  GLY23       0.1869
     42  C         49.8510 -147.3810   54.4260 C.2    23  GLY23       0.2309
     43  O         49.3120 -147.0990   55.5000 O.2    23  GLY23      -0.2863
     44  N         54.2120 -142.2840   58.4610 N.3    27  ALA27      -0.1245
     45  CA        54.8650 -141.0410   58.0820 C.3    27  ALA27       0.1562
     46  C         55.3820 -140.2690   59.2830 C.2    27  ALA27       0.2260
     47  O         56.3740 -139.5530   59.1950 O.2    27  ALA27      -0.2867
     48  CB        53.8980 -140.1890   57.2980 C.3    27  ALA27       0.0290
     49  N         53.1380 -137.7400   66.0800 N.3    31  THR31      -0.1218
     50  CA        52.1720 -136.7210   65.6720 C.3    31  THR31       0.1862
     51  C         51.3690 -136.1570   66.8390 C.2    31  THR31       0.2287
     52  O         51.0750 -136.8750   67.7940 O.2    31  THR31      -0.2866
     53  CB        51.1570 -137.3140   64.6700 C.3    31  THR31       0.1770
     54  OG1       51.8640 -137.8320   63.5410 O.3    31  THR31      -0.2211
     55  CG2       50.1540 -136.2550   64.2150 C.3    31  THR31       0.0375
     56  N         47.8530 -134.7580   67.4260 N.3    33  LYS33      -0.1245
     57  CA        46.5110 -134.6190   66.8850 C.3    33  LYS33       0.1561
     58  C         45.5880 -133.7590   67.7490 C.2    33  LYS33       0.2260
     59  O         44.4100 -133.5610   67.4120 O.2    33  LYS33      -0.2867
     60  CB        45.9080 -136.0190   66.6740 C.3    33  LYS33       0.0271
     61  CG        46.8050 -136.9340   65.8540 C.3    33  LYS33       0.0035
     62  CD        46.1960 -138.3090   65.6600 C.3    33  LYS33       0.0206
     63  CE        47.1450 -139.1980   64.8540 C.3    33  LYS33       0.1093
     64  NZ        46.6360 -140.5680   64.6000 N.3    33  LYS33      -0.1314
     65  N         41.8160 -134.1340   65.7260 N.3    45  ARG45      -0.1231
     66  CA        41.7390 -134.3060   64.2870 C.3    45  ARG45       0.1694
     67  C         41.8690 -135.7530   63.8050 C.2    45  ARG45       0.2593
     68  O         42.7430 -136.4930   64.2620 O.2    45  ARG45      -0.2718
     69  CB        42.8250 -133.4740   63.6250 C.3    45  ARG45       0.0321
     70  CG        42.7200 -132.0080   63.9210 C.3    45  ARG45       0.0489
     71  CD        43.8610 -131.2140   63.2970 C.3    45  ARG45       0.2205
     72  NE        45.1710 -131.5880   63.8170 N.pl3  45  ARG45      -0.0865
     73  CZ        46.0290 -132.3810   63.1830 C.cat  45  ARG45       0.5346
     74  NH1       45.7220 -132.8860   62.0000 N.pl3  45  ARG45       0.1354
     75  NH2       47.1990 -132.6750   63.7280 N.pl3  45  ARG45       0.1354
     76  N         40.9860 -136.1470   62.8840 N.am   46  SER46      -0.1938
     77  CA        41.0210 -137.4790   62.2640 C.3    46  SER46       0.2055
     78  C         40.6400 -137.3410   60.7720 C.2    46  SER46       0.2644
     79  O         39.8850 -136.4390   60.3770 O.2    46  SER46      -0.2714
     80  CB        40.0840 -138.4580   62.9770 C.3    46  SER46       0.2130
     81  OG        38.7370 -138.2500   62.6110 O.3    46  SER46      -0.2179
     82  N         41.1810 -138.2320   59.9480 N.am   47  GLY47      -0.1939
     83  CA        40.9240 -138.1740   58.5210 C.3    47  GLY47       0.2014
     84  C         42.1350 -137.5680   57.8300 C.2    47  GLY47       0.2640
     85  O         43.2710 -137.8800   58.1760 O.2    47  GLY47      -0.2714
     86  N         41.9070 -136.6930   56.8630 N.am   48  SER48      -0.1935
     87  CA        43.0070 -136.0640   56.1460 C.3    48  SER48       0.2055
     88  C         43.7860 -135.1110   57.0520 C.2    48  SER48       0.2643
     89  O         43.1970 -134.2630   57.7300 O.2    48  SER48      -0.2714
     90  CB        42.4630 -135.2790   54.9490 C.3    48  SER48       0.2130
     91  OG        43.4730 -134.4920   54.3340 O.3    48  SER48      -0.2179
     92  N         45.1090 -135.2470   57.0650 N.am   49  ALA49      -0.1963
     93  CA        45.9370 -134.3630   57.8710 C.3    49  ALA49       0.1728
     94  C         45.8690 -132.9810   57.2380 C.2    49  ALA49       0.2616
     95  O         45.6190 -131.9910   57.9220 O.2    49  ALA49      -0.2715
     96  CB        47.3650 -134.8560   57.8880 C.3    49  ALA49       0.0334
     97  N         46.0800 -132.9240   55.9240 N.am   50  ALA50      -0.1977
     98  CA        46.0380 -131.6660   55.1790 C.3    50  ALA50       0.1597
     99  C         44.7180 -130.9360   55.3930 C.2    50  ALA50       0.2287
    100  O         44.7060 -129.7350   55.6640 O.2    50  ALA50      -0.2864
    101  CB        46.2430 -131.9260   53.6960 C.3    50  ALA50       0.0319
    102  N         42.2380 -131.4440   57.8570 N.3    52  THR52      -0.1218
    103  CA        41.9930 -131.0620   59.2460 C.3    52  THR52       0.1862
    104  C         42.8950 -129.9110   59.6950 C.2    52  THR52       0.2287
    105  O         42.4440 -129.0200   60.4140 O.2    52  THR52      -0.2866
    106  CB        42.1230 -132.2660   60.2080 C.3    52  THR52       0.1770
    107  OG1       43.4250 -132.8520   60.0870 O.3    52  THR52      -0.2211
    108  CG2       41.0510 -133.3040   59.8880 C.3    52  THR52       0.0375
    109  N         37.7530 -141.7980   64.5680 N.3   128  GLY128     -0.1210
    110  CA        38.9750 -142.2790   63.9560 C.3   128  GLY128      0.1956
    111  C         38.8270 -143.7660   63.7220 C.2   128  GLY128      0.2612
    112  O         37.9510 -144.4040   64.3090 O.2   128  GLY128     -0.2717
    113  N         39.6720 -144.3230   62.8670 N.am  129  SER129     -0.1952
    114  CA        39.6030 -145.7430   62.5720 C.3   129  SER129      0.1924
    115  C         39.6450 -146.6130   63.8330 C.2   129  SER129      0.2314
    116  O         38.9230 -147.6120   63.9200 O.2   129  SER129     -0.2863
    117  CB        40.7350 -146.1350   61.6130 C.3   129  SER129      0.2116
    118  OG        41.9970 -145.6800   62.0730 O.3   129  SER129     -0.2180
    119  N         46.1750 -148.2870   62.0320 N.3   168  SER168     -0.1217
    120  CA        46.3510 -146.8810   61.6980 C.3   168  SER168      0.1889
    121  C         46.6670 -146.0580   62.9260 C.2   168  SER168      0.2288
    122  O         46.9850 -144.8780   62.8130 O.2   168  SER168     -0.2866
    123  CB        45.0980 -146.3260   61.0330 C.3   168  SER168      0.2089
    124  OG        44.9060 -146.9430   59.7880 O.3   168  SER168     -0.2183
@<TRIPOS>BOND
     1    41    40    1
     2    41    42    1
     3    37    39    1
     4    37    38    1
     5    37    34    1
     6    36    35    2
     7    40    35   am
     8    35    34    1
     9   101    98    1
    10    34    33    1
    11    91    90    1
    12    42    43    2
    13    90    87    1
    14    98    99    1
    15    98    97    1
    16    99   100    2
    17    33    28   am
    18    97    94   am
    19    29    28    2
    20    87    86    1
    21    87    88    1
    22    28    27    1
    23    86    84   am
    24    88    92   am
    25    88    89    2
    26    92    93    1
    27    94    93    1
    28    94    95    2
    29    48    45    1
    30    27    30    1
    31    27    26    1
    32    84    85    2
    33    84    83    1
    34   102   103    1
    35    93    96    1
    36    30    31    1
    37    30    32    1
    38    45    44    1
    39    45    46    1
    40    83    82    1
    41    26    21   am
    42    47    46    2
    43   103   104    1
    44   103   106    1
    45   104   105    2
    46    21    22    2
    47    21    20    1
    48   124   123    1
    49   108   106    1
    50    82    78   am
    51   107   106    1
    52    24    23    1
    53    23    20    1
    54    23    25    1
    55    79    78    2
    56    20    19    1
    57    78    77    1
    58   123   120    1
    59   117   118    1
    60   117   114    1
    61   120   119    1
    62   120   121    1
    63    74    73    1
    64    19    10   am
    65    77    76    1
    66    77    80    1
    67   114   113    1
    68   114   115    1
    69    81    80    1
    70     6     5    1
    71   122   121    2
    72   113   111   am
    73    76    67   am
    74    11    10    2
    75    10     9    1
    76    13    14    1
    77    13    12    1
    78     1     2    1
    79    73    75    1
    80    73    72    2
    81    14    15    1
    82    71    72    1
    83    71    70    1
    84     5     2    1
    85     5     7    1
    86    54    53    1
    87    69    70    1
    88    69    66    1
    89   111   110    1
    90   111   112    2
    91    67    68    2
    92    67    66    1
    93   115   116    2
    94    17    16    1
    95    15    16    2
    96   110   109    1
    97     2     3    1
    98    16    18    1
    99    55    53    1
   100     9    12    1
   101     9     8    1
   102    66    65    1
   103    64    63    1
   104    53    50    1
   105    63    62    1
   106     4     3    2
   107    62    61    1
   108    50    49    1
   109    50    51    1
   110    61    60    1
   111    60    57    1
   112    51    52    2
   113    57    56    1
   114    57    58    1
   115    59    58    2
