@<TRIPOS>MOLECULE
tmp/2zczA00.pdb
 102 97 0 0 0
SMALL
GASTEIGER

@<TRIPOS>ATOM
      1  N         24.8040   23.4340   15.0690 N.3    15  VAL15      -0.1231
      2  CA        23.5700   22.7530   15.4830 C.3    15  VAL15       0.1692
      3  C         23.3480   23.1780   16.9450 C.2    15  VAL15       0.2592
      4  O         24.1550   22.9010   17.8190 O.2    15  VAL15      -0.2718
      5  CB        23.6570   21.2200   15.3460 C.3    15  VAL15       0.0266
      6  CG1       22.3120   20.5370   15.7870 C.3    15  VAL15       0.0020
      7  CG2       24.0370   20.8170   13.9050 C.3    15  VAL15       0.0020
      8  N         22.2640   23.8900   17.1930 N.am   16  ILE16      -0.1966
      9  CA        22.0850   24.6130   18.4480 C.3    16  ILE16       0.1727
     10  C         20.9610   23.9670   19.2440 C.2    16  ILE16       0.2616
     11  O         19.8320   23.8970   18.7390 O.2    16  ILE16      -0.2715
     12  CB        21.6630   26.0630   18.1560 C.3    16  ILE16       0.0290
     13  CG1       22.6360   26.7130   17.1720 C.3    16  ILE16       0.0022
     14  CG2       21.6110   26.8620   19.4370 C.3    16  ILE16       0.0023
     15  CD1       23.9850   26.7600   17.6670 C.3    16  ILE16       0.0001
     16  N         21.2350   23.5030   20.4640 N.am   17  GLY17      -0.1955
     17  CA        20.1770   22.8820   21.2670 C.3    17  GLY17       0.1869
     18  C         19.5880   23.9390   22.1710 C.2    17  GLY17       0.2309
     19  O         20.3160   24.6280   22.8780 O.2    17  GLY17      -0.2863
     20  N         21.7540   25.8830   25.1430 N.3    27  HIS27      -0.1226
     21  CA        22.6100   25.2830   26.1470 C.3    27  HIS27       0.1752
     22  C         23.8590   24.6910   25.5070 C.2    27  HIS27       0.2596
     23  O         24.8390   24.4440   26.2120 O.2    27  HIS27      -0.2718
     24  CB        21.8770   24.2030   26.9490 C.3    27  HIS27       0.0759
     25  CG        21.3160   23.0940   26.1120 C.ar   27  HIS27       0.0818
     26  ND1       22.0710   22.0100   25.7120 N.ar   27  HIS27      -0.2268
     27  CD2       20.0710   22.8940   25.6150 C.ar   27  HIS27       0.1154
     28  CE1       21.3130   21.1840   25.0120 C.ar   27  HIS27       0.1986
     29  NE2       20.0980   21.7060   24.9200 N.ar   27  HIS27      -0.2212
     30  N         23.8150   24.4470   24.1920 N.am   28  HIS28      -0.1975
     31  CA        24.9410   23.8470   23.4820 C.3    28  HIS28       0.1656
     32  C         24.8760   24.1780   22.0040 C.2    28  HIS28       0.2291
     33  O         23.7980   24.1490   21.3940 O.2    28  HIS28      -0.2864
     34  CB        24.9540   22.3170   23.6380 C.3    28  HIS28       0.0771
     35  CG        26.1590   21.6430   23.0450 C.ar   28  HIS28       0.0820
     36  ND1       27.3870   21.6360   23.6730 N.ar   28  HIS28      -0.2267
     37  CD2       26.3290   20.9640   21.8820 C.ar   28  HIS28       0.1154
     38  CE1       28.2610   20.9860   22.9280 C.ar   28  HIS28       0.1986
     39  NE2       27.6410   20.5560   21.8410 N.ar   28  HIS28      -0.2212
     40  N         26.8590   22.6140   18.6990 N.3    30  GLU30      -0.1245
     41  CA        27.8100   21.6320   18.2060 C.3    30  GLU30       0.1567
     42  C         28.1930   22.0750   16.8040 C.2    30  GLU30       0.2260
     43  O         27.3230   22.1940   15.9330 O.2    30  GLU30      -0.2867
     44  CB        27.2140   20.2230   18.1670 C.3    30  GLU30       0.0388
     45  CG        28.2280   19.1480   17.6860 C.3    30  GLU30       0.1160
     46  CD        29.3280   18.9060   18.6950 C.2    30  GLU30       0.3649
     47  OE1       29.0790   19.0670   19.9140 O.co2  30  GLU30      -0.2457
     48  OE2       30.4550   18.5790   18.2770 O.co2  30  GLU30      -0.2457
     49  N         25.6020   14.9340   12.1930 N.3    38  LEU38      -0.1245
     50  CA        25.1450   14.8460   13.5590 C.3    38  LEU38       0.1561
     51  C         23.7240   14.2590   13.5150 C.2    38  LEU38       0.2260
     52  O         22.8720   14.7130   12.7390 O.2    38  LEU38      -0.2867
     53  CB        25.1360   16.2310   14.2540 C.3    38  LEU38       0.0270
     54  CG        24.7680   16.1910   15.7630 C.3    38  LEU38       0.0019
     55  CD1       25.9090   15.5980   16.6070 C.3    38  LEU38       0.0001
     56  CD2       24.3650   17.5770   16.3110 C.3    38  LEU38       0.0001
     57  N         20.9240   13.8220   16.1580 N.3    40  ALA40      -0.1231
     58  CA        20.6540   14.3480   17.4990 C.3    40  ALA40       0.1694
     59  C         19.1910   14.1090   17.8740 C.2    40  ALA40       0.2591
     60  O         18.2790   14.3760   17.0650 O.2    40  ALA40      -0.2718
     61  CB        20.9760   15.8470   17.5810 C.3    40  ALA40       0.0304
     62  N         18.9650   13.6760   19.1130 N.am   41  GLN41      -0.1979
     63  CA        17.6190   13.4170   19.5980 C.3    41  GLN41       0.1601
     64  C         17.0660   14.6760   20.2870 C.2    41  GLN41       0.2287
     65  O         17.8440   15.5140   20.7430 O.2    41  GLN41      -0.2864
     66  CB        17.6590   12.2980   20.6370 C.3    41  GLN41       0.0394
     67  CG        17.7750   10.8770   20.0780 C.3    41  GLN41       0.0908
     68  CD        17.7720    9.8940   21.2050 C.2    41  GLN41       0.2608
     69  OE1       18.4530   10.0950   22.2120 O.2    41  GLN41      -0.2717
     70  NE2       16.9730    8.8460   21.0710 N.am   41  GLN41      -0.0878
     71  N         15.2380   15.5140   23.7580 N.3    43  THR43      -0.1218
     72  CA        15.5720   14.9170   25.0350 C.3    43  THR43       0.1862
     73  C         14.9320   15.7030   26.1970 C.2    43  THR43       0.2287
     74  O         14.2880   16.7470   25.9940 O.2    43  THR43      -0.2866
     75  CB        17.1310   15.0140   25.3020 C.3    43  THR43       0.1770
     76  OG1       17.4780   16.3910   25.5450 O.3    43  THR43      -0.2211
     77  CG2       17.9820   14.4790   24.1370 C.3    43  THR43       0.0375
     78  N         16.3900   17.6270   27.9890 N.3    45  HIS45      -0.1226
     79  CA        17.0400   18.9480   28.0720 C.3    45  HIS45       0.1752
     80  C         16.9220   19.8210   26.8420 C.2    45  HIS45       0.2596
     81  O         17.2040   21.0180   26.8950 O.2    45  HIS45      -0.2718
     82  CB        18.5190   18.7950   28.5090 C.3    45  HIS45       0.0759
     83  CG        18.6510   18.3110   29.9110 C.ar   45  HIS45       0.0818
     84  ND1       18.6940   16.9710   30.2370 N.ar   45  HIS45      -0.2268
     85  CD2       18.6810   18.9860   31.0860 C.ar   45  HIS45       0.1154
     86  CE1       18.7770   16.8400   31.5530 C.ar   45  HIS45       0.1986
     87  NE2       18.7770   18.0500   32.0900 N.ar   45  HIS45      -0.2212
     88  N         16.5650   19.2070   25.7300 N.am   46  THR46      -0.1953
     89  CA        16.5520   19.8800   24.4070 C.3    46  THR46       0.1897
     90  C         15.2170   19.6540   23.7350 C.2    46  THR46       0.2313
     91  O         14.9130   18.5060   23.3540 O.2    46  THR46      -0.2863
     92  CB        17.6680   19.3110   23.4770 C.3    46  THR46       0.1794
     93  OG1       18.9400   19.5070   24.1040 O.3    46  THR46      -0.2208
     94  CG2       17.6750   20.0540   22.1330 C.3    46  THR46       0.0378
     95  N         15.7450   22.5780   18.1620 N.3    49  ILE49      -0.1245
     96  CA        17.0690   22.5000   17.5780 C.3    49  ILE49       0.1561
     97  C         17.1000   23.4610   16.4060 C.2    49  ILE49       0.2260
     98  O         16.2620   23.3990   15.4990 O.2    49  ILE49      -0.2867
     99  CB        17.3680   21.0680   17.0980 C.3    49  ILE49       0.0252
    100  CG1       17.4620   20.1030   18.2900 C.3    49  ILE49       0.0019
    101  CG2       18.6790   21.0180   16.2440 C.3    49  ILE49       0.0019
    102  CD1       17.3160   18.6470   17.9030 C.3    49  ILE49       0.0001
@<TRIPOS>BOND
     1    49    50    1
     2    52    51    2
     3    51    50    1
     4    50    53    1
     5     7     5    1
     6    53    54    1
     7     1     2    1
     8     5     2    1
     9     5     6    1
    10     2     3    1
    11    98    97    2
    12    54    56    1
    13    54    55    1
    14    43    42    2
    15    57    58    1
    16   101    99    1
    17    97    96    1
    18    42    41    1
    19     3     8   am
    20     3     4    2
    21    60    59    2
    22    99    96    1
    23    99   100    1
    24    13    15    1
    25    13    12    1
    26     8     9    1
    27    58    61    1
    28    58    59    1
    29    96    95    1
    30    45    44    1
    31    45    46    1
    32    59    62   am
    33   102   100    1
    34    12     9    1
    35    12    14    1
    36    44    41    1
    37    41    40    1
    38    48    46   ar
    39     9    10    1
    40    46    47   ar
    41    11    10    2
    42    62    63    1
    43    10    16   am
    44    63    64    1
    45    63    66    1
    46    67    66    1
    47    67    68    1
    48    64    65    2
    49    16    17    1
    50    70    68   am
    51    68    69    2
    52    17    18    1
    53    33    32    2
    54    39    37   ar
    55    39    38   ar
    56    37    35   ar
    57    32    31    1
    58    94    92    1
    59    18    19    2
    60    38    36   ar
    61    35    34    1
    62    35    36   ar
    63    91    90    2
    64    92    93    1
    65    92    89    1
    66    31    34    1
    67    31    30    1
    68    90    89    1
    69    71    72    1
    70    77    75    1
    71    30    22   am
    72    89    88    1
    73    29    28   ar
    74    29    27   ar
    75    28    26   ar
    76    72    75    1
    77    72    73    1
    78    20    21    1
    79    75    76    1
    80    22    21    1
    81    22    23    2
    82    27    25   ar
    83    26    25   ar
    84    88    80   am
    85    74    73    2
    86    25    24    1
    87    21    24    1
    88    80    81    2
    89    80    79    1
    90    78    79    1
    91    79    82    1
    92    82    83    1
    93    83    84   ar
    94    83    85   ar
    95    84    86   ar
    96    85    87   ar
    97    86    87   ar
