@<TRIPOS>MOLECULE
tmp/2zd1A00.pdb
 172 171 0 0 0
SMALL
GASTEIGER

@<TRIPOS>ATOM
      1  N         46.0390  -19.0840   37.0190 N.3    97  PRO97      -0.2116
      2  CA        46.5270  -19.5320   35.7150 C.3    97  PRO97       0.1372
      3  C         45.3770  -20.2540   35.0250 C.2    97  PRO97       0.2244
      4  O         44.5630  -20.8920   35.7000 O.2    97  PRO97      -0.2868
      5  CB        47.6400  -20.5150   36.0860 C.3    97  PRO97       0.0268
      6  CG        48.1230  -20.0130   37.4040 C.3    97  PRO97       0.0207
      7  CD        46.8310  -19.6920   38.1070 C.3    97  PRO97       0.0892
      8  N         48.9590  -23.5660   30.5460 N.3   102  LEU102     -0.1231
      9  CA        49.9840  -24.4170   31.1380 C.3   102  LEU102      0.1693
     10  C         50.7390  -25.2170   30.0740 C.2   102  LEU102      0.2591
     11  O         50.3040  -25.2890   28.9190 O.2   102  LEU102     -0.2718
     12  CB        49.3420  -25.3680   32.1440 C.3   102  LEU102      0.0284
     13  CG        48.5720  -24.6560   33.2610 C.3   102  LEU102      0.0019
     14  CD1       48.0360  -25.6930   34.2190 C.3   102  LEU102      0.0001
     15  CD2       49.4840  -23.6560   33.9880 C.3   102  LEU102      0.0001
     16  N         51.8760  -25.7970   30.4610 N.am  103  LYS103     -0.1980
     17  CA        52.6750  -26.6140   29.5550 C.3   103  LYS103      0.1596
     18  C         52.5420  -28.0600   30.0370 C.2   103  LYS103      0.2287
     19  O         52.3770  -28.3060   31.2400 O.2   103  LYS103     -0.2864
     20  CB        54.1510  -26.1930   29.6000 C.3   103  LYS103      0.0298
     21  CG        54.5560  -25.0880   28.6100 C.3   103  LYS103      0.0038
     22  CD        53.7830  -23.7780   28.8450 C.3   103  LYS103      0.0206
     23  CE        53.9780  -23.2450   30.2750 C.3   103  LYS103      0.1093
     24  NZ        53.2580  -21.9340   30.5350 N.3   103  LYS103     -0.1314
     25  N         53.5150  -31.6730   31.3490 N.3   105  LYS105     -0.1245
     26  CA        54.6050  -32.1380   32.2010 C.3   105  LYS105      0.1561
     27  C         54.6130  -33.6690   32.3000 C.2   105  LYS105      0.2260
     28  O         53.5560  -34.3090   32.3540 O.2   105  LYS105     -0.2867
     29  CB        54.4640  -31.5600   33.6170 C.3   105  LYS105      0.0271
     30  CG        54.4970  -30.0310   33.7160 C.3   105  LYS105      0.0035
     31  CD        55.8010  -29.4530   33.1920 C.3   105  LYS105      0.0206
     32  CE        55.7120  -27.9240   33.0480 C.3   105  LYS105      0.1093
     33  NZ        56.9510  -27.3430   32.4470 N.3   105  LYS105     -0.1314
     34  N         54.8080  -34.5180   38.0790 N.3   108  VAL108     -0.1245
     35  CA        54.3810  -33.4340   38.9460 C.3   108  VAL108      0.1561
     36  C         54.3020  -34.0360   40.3400 C.2   108  VAL108      0.2260
     37  O         53.4000  -34.8150   40.6470 O.2   108  VAL108     -0.2867
     38  CB        53.0060  -32.8520   38.5270 C.3   108  VAL108      0.0252
     39  CG1       52.5190  -31.8360   39.5680 C.3   108  VAL108      0.0019
     40  CG2       53.1310  -32.1800   37.1590 C.3   108  VAL108      0.0019
     41  N         59.0300  -26.3550   37.4410 N.3   181  VAL181     -0.1231
     42  CA        58.0760  -25.3040   37.7420 C.3   181  VAL181      0.1692
     43  C         57.6100  -25.5900   39.1450 C.2   181  VAL181      0.2592
     44  O         57.4620  -26.7480   39.5210 O.2   181  VAL181     -0.2718
     45  CB        56.8530  -25.3190   36.7860 C.3   181  VAL181      0.0266
     46  CG1       57.2830  -24.8920   35.3920 C.3   181  VAL181      0.0020
     47  CG2       56.2360  -26.7060   36.7390 C.3   181  VAL181      0.0020
     48  N         57.3790  -24.5450   39.9280 N.am  182  ILE182     -0.1966
     49  CA        56.9250  -24.7230   41.2990 C.3   182  ILE182      0.1727
     50  C         55.7020  -23.8580   41.4940 C.2   182  ILE182      0.2616
     51  O         55.6870  -22.6940   41.0910 O.2   182  ILE182     -0.2715
     52  CB        58.0240  -24.2990   42.2950 C.3   182  ILE182      0.0290
     53  CG1       59.3060  -25.0770   41.9980 C.3   182  ILE182      0.0022
     54  CG2       57.5570  -24.5410   43.7170 C.3   182  ILE182      0.0023
     55  CD1       60.5370  -24.5470   42.7370 C.3   182  ILE182      0.0001
     56  N         54.6700  -24.4240   42.1020 N.am  183  TYR183     -0.1974
     57  CA        53.4320  -23.6990   42.3330 C.3   183  TYR183      0.1639
     58  C         52.9330  -24.0550   43.7130 C.2   183  TYR183      0.2290
     59  O         52.9290  -25.2230   44.0970 O.2   183  TYR183     -0.2864
     60  CB        52.3870  -24.0890   41.2810 C.3   183  TYR183      0.0560
     61  CG        50.9880  -23.5670   41.5430 C.ar  183  TYR183     -0.0198
     62  CD1       50.6520  -22.2300   41.3060 C.ar  183  TYR183     -0.0009
     63  CD2       49.9950  -24.4140   42.0340 C.ar  183  TYR183     -0.0009
     64  CE1       49.3470  -21.7530   41.5530 C.ar  183  TYR183      0.0417
     65  CE2       48.6990  -23.9490   42.2840 C.ar  183  TYR183      0.0417
     66  CZ        48.3850  -22.6190   42.0410 C.ar  183  TYR183      0.1957
     67  OH        47.1060  -22.1720   42.3000 O.3   183  TYR183     -0.2866
     68  N         49.8060  -23.9830   46.4330 N.3   185  TYR185     -0.1241
     69  CA        48.3750  -23.8700   46.5640 C.3   185  TYR185      0.1605
     70  C         48.0330  -24.4130   47.9400 C.2   185  TYR185      0.2264
     71  O         48.1970  -25.5990   48.2000 O.2   185  TYR185     -0.2867
     72  CB        47.6730  -24.6810   45.4770 C.3   185  TYR185      0.0534
     73  CG        46.1820  -24.5290   45.5340 C.ar  185  TYR185     -0.0201
     74  CD1       45.5970  -23.2660   45.4810 C.ar  185  TYR185     -0.0009
     75  CD2       45.3560  -25.6350   45.7060 C.ar  185  TYR185     -0.0009
     76  CE1       44.2250  -23.1030   45.6070 C.ar  185  TYR185      0.0417
     77  CE2       43.9830  -25.4870   45.8330 C.ar  185  TYR185      0.0417
     78  CZ        43.4250  -24.2170   45.7880 C.ar  185  TYR185      0.1957
     79  OH        42.0700  -24.0530   45.9640 O.3   185  TYR185     -0.2866
     80  N         53.6830  -27.8350   44.3850 N.3   190  TYR190     -0.1241
     81  CA        53.5700  -28.7470   43.2630 C.3   190  TYR190      0.1605
     82  C         54.7850  -28.4580   42.4030 C.2   190  TYR190      0.2264
     83  O         55.0150  -27.3230   41.9870 O.2   190  TYR190     -0.2867
     84  CB        52.2790  -28.4920   42.4860 C.3   190  TYR190      0.0534
     85  CG        51.0330  -28.7450   43.2960 C.ar  190  TYR190     -0.0201
     86  CD1       50.6310  -27.8560   44.2900 C.ar  190  TYR190     -0.0009
     87  CD2       50.2560  -29.8830   43.0800 C.ar  190  TYR190     -0.0009
     88  CE1       49.4870  -28.0880   45.0450 C.ar  190  TYR190      0.0417
     89  CE2       49.1060  -30.1270   43.8380 C.ar  190  TYR190      0.0417
     90  CZ        48.7320  -29.2270   44.8130 C.ar  190  TYR190      0.1957
     91  OH        47.6080  -29.4610   45.5600 O.3   190  TYR190     -0.2866
     92  N         56.7750  -29.5510   38.9670 N.3   192  GLY192     -0.1225
     93  CA        56.6890  -30.3070   37.7360 C.3   192  GLY192      0.1811
     94  C         57.8840  -30.1400   36.8320 C.2   192  GLY192      0.2280
     95  O         58.5810  -29.1150   36.8600 O.2   192  GLY192     -0.2866
     96  N         48.8220  -36.9160   39.8450 N.3   227  PRO227     -0.2116
     97  CA        47.9630  -36.6570   38.6830 C.3   227  PRO227      0.1372
     98  C         46.8930  -37.7420   38.5430 C.2   227  PRO227      0.2244
     99  O         47.1740  -38.9160   38.7710 O.2   227  PRO227     -0.2868
    100  CB        48.9540  -36.6660   37.5200 C.3   227  PRO227      0.0268
    101  CG        50.2060  -36.1090   38.1520 C.3   227  PRO227      0.0207
    102  CD        50.2500  -36.8290   39.4830 C.3   227  PRO227      0.0892
    103  N         44.7790  -33.9050   39.0740 N.3   229  PHE229     -0.1227
    104  CA        44.4410  -33.0460   40.2100 C.3   229  PHE229      0.1736
    105  C         43.1180  -32.3240   40.0100 C.2   229  PHE229      0.2595
    106  O         42.7820  -31.9250   38.8980 O.2   229  PHE229     -0.2718
    107  CB        45.4990  -31.9580   40.4310 C.3   229  PHE229      0.0547
    108  CG        46.8950  -32.4700   40.5910 C.ar  229  PHE229     -0.0202
    109  CD1       47.8000  -32.3820   39.5430 C.ar  229  PHE229     -0.0042
    110  CD2       47.3190  -33.0130   41.8020 C.ar  229  PHE229     -0.0042
    111  CE1       49.1150  -32.8240   39.6950 C.ar  229  PHE229     -0.0003
    112  CE2       48.6280  -33.4590   41.9650 C.ar  229  PHE229     -0.0003
    113  CZ        49.5290  -33.3650   40.9090 C.ar  229  PHE229     -0.0000
    114  N         42.3810  -32.1540   41.1000 N.am  230  LEU230     -0.1966
    115  CA        41.1240  -31.4280   41.0920 C.3   230  LEU230      0.1728
    116  C         41.5430  -30.0680   41.6560 C.2   230  LEU230      0.2616
    117  O         41.8870  -29.9460   42.8370 O.2   230  LEU230     -0.2715
    118  CB        40.1160  -32.1320   41.9990 C.3   230  LEU230      0.0311
    119  CG        39.8390  -33.5760   41.5480 C.3   230  LEU230      0.0022
    120  CD1       38.9280  -34.2780   42.5490 C.3   230  LEU230      0.0001
    121  CD2       39.1960  -33.5600   40.1540 C.3   230  LEU230      0.0001
    122  N         41.5180  -29.0480   40.8040 N.am  231  TRP231     -0.1974
    123  CA        41.9740  -27.7190   41.1830 C.3   231  TRP231      0.1640
    124  C         41.1380  -26.6200   40.5340 C.2   231  TRP231      0.2290
    125  O         40.9500  -26.6100   39.3190 O.2   231  TRP231     -0.2864
    126  CB        43.4420  -27.6000   40.7590 C.3   231  TRP231      0.0576
    127  CG        44.0750  -26.2480   40.8800 C.ar  231  TRP231      0.0006
    128  CD1       44.5830  -25.6700   42.0080 C.ar  231  TRP231      0.0946
    129  CD2       44.3110  -25.3220   39.8130 C.ar  231  TRP231      0.0152
    130  NE1       45.1290  -24.4460   41.7080 N.ar  231  TRP231     -0.2442
    131  CE2       44.9740  -24.2070   40.3670 C.ar  231  TRP231      0.0810
    132  CE3       44.0240  -25.3290   38.4390 C.ar  231  TRP231      0.0012
    133  CZ2       45.3550  -23.1020   39.5950 C.ar  231  TRP231      0.0191
    134  CZ3       44.4000  -24.2300   37.6690 C.ar  231  TRP231      0.0001
    135  CH2       45.0590  -23.1310   38.2500 C.ar  231  TRP231      0.0015
    136  N         43.3800  -31.5010   36.0920 N.3   236  LEU236     -0.1231
    137  CA        44.6370  -31.3250   35.3870 C.3   236  LEU236      0.1693
    138  C         45.2730  -32.6930   35.2500 C.2   236  LEU236      0.2592
    139  O         45.4460  -33.4060   36.2500 O.2   236  LEU236     -0.2718
    140  CB        45.5820  -30.4050   36.1790 C.3   236  LEU236      0.0284
    141  CG        45.1160  -28.9870   36.5290 C.3   236  LEU236      0.0019
    142  CD1       46.2770  -28.2320   37.2140 C.3   236  LEU236      0.0001
    143  CD2       44.6690  -28.2490   35.2470 C.3   236  LEU236      0.0001
    144  N         45.6190  -33.0710   34.0260 N.am  237  HIS237     -0.1962
    145  CA        46.2790  -34.3510   33.7850 C.3   237  HIS237      0.1772
    146  C         47.6530  -34.0040   33.2110 C.2   237  HIS237      0.2462
    147  O         47.8930  -32.8720   32.7850 O.2   237  HIS237     -0.2730
    148  CB        45.5020  -35.1800   32.7560 C.3   237  HIS237      0.0785
    149  CG        44.0840  -35.4590   33.1450 C.ar  237  HIS237      0.0821
    150  ND1       43.6730  -36.6790   33.6360 N.ar  237  HIS237     -0.2267
    151  CD2       42.9790  -34.6760   33.1120 C.ar  237  HIS237      0.1154
    152  CE1       42.3780  -36.6360   33.8910 C.ar  237  HIS237      0.1986
    153  NE2       41.9320  -35.4320   33.5820 N.ar  237  HIS237     -0.2212
    154  N         48.5680  -34.9780   33.1720 N.am  238  PRO238     -0.2727
    155  CA        49.9120  -34.7380   32.6400 C.3   238  PRO238      0.1402
    156  C         49.9480  -34.0730   31.2640 C.2   238  PRO238      0.2269
    157  O         50.8100  -33.2240   30.9950 O.2   238  PRO238     -0.2865
    158  CB        50.5150  -36.1380   32.6120 C.3   238  PRO238      0.0296
    159  CG        49.8860  -36.7780   33.8210 C.3   238  PRO238      0.0237
    160  CD        48.4430  -36.3580   33.6790 C.3   238  PRO238      0.0939
    161  N         47.4310  -28.7930   26.2080 N.3   320  TYR320     -0.1241
    162  CA        48.2310  -27.7400   26.8180 C.3   320  TYR320      0.1605
    163  C         48.9510  -26.9520   25.7330 C.2   320  TYR320      0.2264
    164  O         48.9910  -27.3530   24.5690 O.2   320  TYR320     -0.2867
    165  CB        49.2480  -28.3430   27.8240 C.3   320  TYR320      0.0534
    166  CG        48.6180  -28.8760   29.0970 C.ar  320  TYR320     -0.0201
    167  CD1       48.9020  -30.1660   29.5600 C.ar  320  TYR320     -0.0009
    168  CD2       47.7660  -28.0880   29.8520 C.ar  320  TYR320     -0.0009
    169  CE1       48.3480  -30.6410   30.7520 C.ar  320  TYR320      0.0417
    170  CE2       47.2150  -28.5450   31.0260 C.ar  320  TYR320      0.0417
    171  CZ        47.5090  -29.8230   31.4760 C.ar  320  TYR320      0.1957
    172  OH        46.9520  -30.2540   32.6600 O.3   320  TYR320     -0.2866
@<TRIPOS>BOND
     1   164   163    2
     2   163   162    1
     3   161   162    1
     4   162   165    1
     5   165   166    1
     6    21    22    1
     7    21    20    1
     8    22    23    1
     9    11    10    2
    10   166   167   ar
    11   166   168   ar
    12    17    20    1
    13    17    18    1
    14    17    16    1
    15   167   169   ar
    16   168   170   ar
    17    18    19    2
    18    10    16   am
    19    10     9    1
    20    23    24    1
    21     8     9    1
    22   169   171   ar
    23   157   156    2
    24   170   171   ar
    25     9    12    1
    26   156   155    1
    27    25    26    1
    28   171   172    1
    29    12    13    1
    30    26    27    1
    31    26    29    1
    32    27    28    2
    33    33    32    1
    34   158   155    1
    35   158   159    1
    36   155   154    1
    37   148   149    1
    38   148   145    1
    39   147   146    2
    40    32    31    1
    41   151   149   ar
    42   151   153   ar
    43   149   150   ar
    44   154   146   am
    45   154   160    1
    46    31    30    1
    47   146   145    1
    48    13    15    1
    49    13    14    1
    50   153   152   ar
    51    29    30    1
    52   150   152   ar
    53   160   159    1
    54   145   144    1
    55   144   138   am
    56     3     4    2
    57     3     2    1
    58   143   141    1
    59   138   137    1
    60   138   139    2
    61   137   136    1
    62   137   140    1
    63    46    45    1
    64     2     5    1
    65     2     1    1
    66     5     6    1
    67   140   141    1
    68   141   142    1
    69    47    45    1
    70    45    42    1
    71    94    95    2
    72    94    93    1
    73     1     7    1
    74    40    38    1
    75     6     7    1
    76    41    42    1
    77   100   101    1
    78   100    97    1
    79   134   135   ar
    80   134   132   ar
    81    93    92    1
    82    42    43    1
    83    34    35    1
    84   101   102    1
    85   135   133   ar
    86   132   129   ar
    87    38    35    1
    88    38    39    1
    89    98    97    1
    90    98    99    2
    91    97    96    1
    92   106   105    2
    93    35    36    1
    94   103   104    1
    95    43    44    2
    96    43    48   am
    97   125   124    2
    98   102    96    1
    99   109   111   ar
   100   109   108   ar
   101   133   131   ar
   102   111   113   ar
   103   129   131   ar
   104   129   127   ar
   105    48    49    1
   106   105   104    1
   107   105   114   am
   108   121   119    1
   109   104   107    1
   110    36    37    2
   111   131   130   ar
   112   107   108    1
   113   124   123    1
   114   108   110   ar
   115   126   127    1
   116   126   123    1
   117   122   123    1
   118   122   116   am
   119   127   128   ar
   120   113   112   ar
   121    51    50    2
   122   115   114    1
   123   115   116    1
   124   115   118    1
   125    60    61    1
   126    60    57    1
   127    49    50    1
   128    49    52    1
   129    62    61   ar
   130    62    64   ar
   131    50    56   am
   132    61    63   ar
   133   119   118    1
   134   119   120    1
   135    64    66   ar
   136   116   117    2
   137   130   128   ar
   138   110   112   ar
   139    83    82    2
   140    53    52    1
   141    53    55    1
   142    63    65   ar
   143    66    65   ar
   144    66    67    1
   145    56    57    1
   146    52    54    1
   147    57    58    1
   148    82    81    1
   149    84    81    1
   150    84    85    1
   151    87    85   ar
   152    87    89   ar
   153    81    80    1
   154    85    86   ar
   155    58    59    2
   156    89    90   ar
   157    86    88   ar
   158    90    88   ar
   159    90    91    1
   160    72    73    1
   161    72    69    1
   162    74    73   ar
   163    74    76   ar
   164    73    75   ar
   165    76    78   ar
   166    75    77   ar
   167    78    77   ar
   168    78    79    1
   169    68    69    1
   170    69    70    1
   171    70    71    2
