@<TRIPOS>MOLECULE
tmp/2zd8A02.pdb
 108 98 0 0 0
SMALL
GASTEIGER

@<TRIPOS>ATOM
      1  N          8.3240   33.5820   11.9000 N.3    44  MET44      -0.1230
      2  CA         8.0840   33.8440   10.4930 C.3    44  MET44       0.1702
      3  C          7.7220   32.5140    9.8150 C.2    44  MET44       0.2593
      4  O          7.0680   31.6550   10.3870 O.2    44  MET44      -0.2718
      5  CB         9.2770   34.5660    9.8640 C.3    44  MET44       0.0401
      6  CG         9.8290   35.7430   10.6320 C.3    44  MET44       0.0596
      7  SD        11.5860   36.0280   10.4230 S.3    44  MET44      -0.1393
      8  CE        12.2530   34.5480   11.1430 C.3    44  MET44       0.0692
      9  N          8.2220   32.3340    8.5860 N.am   45  SER45      -0.1952
     10  CA         7.7840   31.1900    7.8180 C.3    45  SER45       0.1924
     11  C          8.2630   29.8540    8.3840 C.2    45  SER45       0.2314
     12  O          7.8130   28.8060    7.9330 O.2    45  SER45      -0.2863
     13  CB         8.2320   31.3210    6.3370 C.3    45  SER45       0.2116
     14  OG         7.6470   32.4880    5.7700 O.3    45  SER45      -0.2180
     15  N          5.9590   26.9780    9.4640 N.3    48  LYS48      -0.1245
     16  CA         5.2680   26.0670    8.5690 C.3    48  LYS48       0.1561
     17  C          5.6820   24.6330    8.7170 C.2    48  LYS48       0.2260
     18  O          4.9250   23.7310    8.3700 O.2    48  LYS48      -0.2867
     19  CB         5.4490   26.5800    7.1310 C.3    48  LYS48       0.0271
     20  CG         4.7850   27.9700    6.9130 C.3    48  LYS48       0.0035
     21  CD         5.0420   28.5900    5.5710 C.3    48  LYS48       0.0206
     22  CE         4.5810   30.0390    5.4910 C.3    48  LYS48       0.1093
     23  NZ         4.7850   30.5780    4.1320 N.3    48  LYS48      -0.1314
     24  N          2.1670   36.7360   -1.2870 N.3    80  TYR80      -0.1241
     25  CA         3.0710   35.6520   -1.6080 C.3    80  TYR80       0.1605
     26  C          2.3290   34.3290   -1.7380 C.2    80  TYR80       0.2264
     27  O          2.3630   33.4900   -0.8460 O.2    80  TYR80      -0.2867
     28  CB         4.1020   35.4330   -0.4590 C.3    80  TYR80       0.0534
     29  CG         5.0210   36.5950   -0.1870 C.ar   80  TYR80      -0.0201
     30  CD1        5.2070   37.1220    1.0800 C.ar   80  TYR80      -0.0009
     31  CD2        5.7130   37.2090   -1.2220 C.ar   80  TYR80      -0.0009
     32  CE1        6.0590   38.1970    1.2760 C.ar   80  TYR80       0.0417
     33  CE2        6.5670   38.2810   -1.0370 C.ar   80  TYR80       0.0417
     34  CZ         6.7350   38.7630    0.2340 C.ar   80  TYR80       0.1957
     35  OH         7.5640   39.8380    0.4760 O.3    80  TYR80      -0.2866
     36  N          7.3180   28.6010    0.0740 N.3   105  SER105     -0.1217
     37  CA         6.9100   29.7150    0.9330 C.3   105  SER105      0.1889
     38  C          5.6140   30.3820    0.4810 C.2   105  SER105      0.2288
     39  O          5.5030   31.5880    0.3310 O.2   105  SER105     -0.2866
     40  CB         8.0770   30.6990    0.9660 C.3   105  SER105      0.2089
     41  OG         9.2830   30.1250    1.4660 O.3   105  SER105     -0.2183
     42  N          2.1960   31.6440    1.3290 N.3   107  ASN107     -0.1240
     43  CA         1.4810   32.0870    2.5180 C.3   107  ASN107      0.1653
     44  C          0.0280   31.6470    2.5320 C.2   107  ASN107      0.2266
     45  O         -0.5260   31.3180    3.5710 O.2   107  ASN107     -0.2867
     46  CB         1.5280   33.5950    2.6820 C.3   107  ASN107      0.1155
     47  CG         2.7560   34.1140    3.3350 C.2   107  ASN107      0.2627
     48  OD1        3.3900   33.4180    4.1250 O.2   107  ASN107     -0.2716
     49  ND2        3.0470   35.3900    3.1180 N.am  107  ASN107     -0.0877
     50  N         -1.1030   34.2550    8.3750 N.3   141  GLU141     -0.1245
     51  CA        -0.3080   35.0230    7.4340 C.3   141  GLU141      0.1567
     52  C         -1.0950   36.1870    6.8720 C.2   141  GLU141      0.2260
     53  O         -2.2870   35.9890    6.5800 O.2   141  GLU141     -0.2867
     54  CB         0.1350   34.1270    6.2490 C.3   141  GLU141      0.0388
     55  CG         1.1900   33.1130    6.6280 C.3   141  GLU141      0.1160
     56  CD         2.5730   33.6950    6.9310 C.2   141  GLU141      0.3649
     57  OE1        2.7690   34.9300    6.8710 O.co2 141  GLU141     -0.2457
     58  OE2        3.4350   32.8270    7.2760 O.co2 141  GLU141     -0.2457
     59  N          4.0980   37.9810   10.9600 N.3   145  ASN145     -0.1240
     60  CA         5.4660   38.4310   10.7160 C.3   145  ASN145      0.1653
     61  C          5.7690   39.7950   11.2810 C.2   145  ASN145      0.2266
     62  O          6.8630   40.3370   11.0300 O.2   145  ASN145     -0.2867
     63  CB         5.8350   38.4140    9.2110 C.3   145  ASN145      0.1155
     64  CG         5.5830   37.0300    8.6130 C.2   145  ASN145      0.2627
     65  OD1        6.3670   36.1420    8.8510 O.2   145  ASN145     -0.2716
     66  ND2        4.5050   36.9020    7.8430 N.am  145  ASN145     -0.0877
     67  N         13.3830   27.5270   -1.9940 N.3   191  VAL191     -0.1245
     68  CA        13.7150   28.9310   -1.7310 C.3   191  VAL191      0.1561
     69  C         15.1630   29.0740   -1.3410 C.2   191  VAL191      0.2260
     70  O         15.8530   29.9730   -1.8290 O.2   191  VAL191     -0.2867
     71  CB        12.7860   29.5010   -0.6580 C.3   191  VAL191      0.0252
     72  CG1       13.2370   30.8640   -0.1980 C.3   191  VAL191      0.0019
     73  CG2       11.3210   29.5270   -1.1490 C.3   191  VAL191      0.0019
     74  N         13.4040   28.5100    5.6540 N.3   210  THR210     -0.1203
     75  CA        13.8230   29.8640    6.0020 C.3   210  THR210      0.1994
     76  C         12.6070   30.7630    6.1660 C.2   210  THR210      0.2618
     77  O         11.5180   30.4580    5.6970 O.2   210  THR210     -0.2717
     78  CB        14.7960   30.4850    4.9840 C.3   210  THR210      0.1784
     79  OG1       14.1770   30.6380    3.7340 O.3   210  THR210     -0.2211
     80  CG2       16.0410   29.6390    4.8210 C.3   210  THR210      0.0376
     81  N         12.8150   31.8910    6.8300 N.am  211  GLY211     -0.1942
     82  CA        11.8100   32.9200    6.9250 C.3   211  GLY211      0.2014
     83  C         12.4130   34.2890    7.0430 C.2   211  GLY211      0.2638
     84  O         13.5770   34.4670    7.4070 O.2   211  GLY211     -0.2714
     85  N         11.5990   35.3070    6.7670 N.am  212  ALA212     -0.1977
     86  CA        11.9690   36.7080    6.9350 C.3   212  ALA212      0.1597
     87  C         10.7160   37.4560    7.3670 C.2   212  ALA212      0.2287
     88  O          9.5920   37.0860    7.0170 O.2   212  ALA212     -0.2864
     89  CB        12.5650   37.2740    5.6650 C.3   212  ALA212      0.0319
     90  N         14.8060   37.3890   10.5630 N.3   218  ARG218     -0.1245
     91  CA        15.2790   36.4360    9.5700 C.3   218  ARG218      0.1563
     92  C         15.5370   35.1520   10.3040 C.2   218  ARG218      0.2260
     93  O         16.0290   35.1880   11.4260 O.2   218  ARG218     -0.2867
     94  CB        16.6370   36.8700    9.0030 C.3   218  ARG218      0.0307
     95  CG        17.2460   35.9210    7.9500 C.3   218  ARG218      0.0489
     96  CD        16.7250   36.3520    6.6070 C.3   218  ARG218      0.2205
     97  NE        17.1810   35.6990    5.3880 N.pl3 218  ARG218     -0.0865
     98  CZ        16.5170   34.7750    4.7170 C.cat 218  ARG218      0.5346
     99  NH1       17.0690   34.2960    3.6060 N.pl3 218  ARG218      0.1354
    100  NH2       15.3400   34.2690    5.0750 N.pl3 218  ARG218      0.1354
    101  N         19.2640   42.3310    3.5850 N.3   245  MET245     -0.1245
    102  CA        19.0300   40.8840    3.4730 C.3   245  MET245      0.1570
    103  C         20.3370   40.1500    3.0970 C.2   245  MET245      0.2261
    104  O         20.6150   39.0940    3.6410 O.2   245  MET245     -0.2867
    105  CB        17.9320   40.6220    2.4820 C.3   245  MET245      0.0387
    106  CG        17.5540   39.1340    2.4250 C.3   245  MET245      0.0595
    107  SD        16.7880   38.5210    3.9150 S.3   245  MET245     -0.1393
    108  CE        15.2360   39.3910    3.9440 C.3   245  MET245      0.0692
@<TRIPOS>BOND
     1    67    68    1
     2    70    69    2
     3    26    25    1
     4    26    27    2
     5    68    69    1
     6    68    71    1
     7    25    24    1
     8    25    28    1
     9    31    33   ar
    10    31    29   ar
    11    73    71    1
    12    33    34   ar
    13    71    72    1
    14    28    29    1
    15    29    30   ar
    16    36    37    1
    17    34    35    1
    18    34    32   ar
    19    39    38    2
    20    38    37    1
    21    37    40    1
    22    40    41    1
    23    30    32   ar
    24    42    43    1
    25   106   105    1
    26   106   107    1
    27   105   102    1
    28    43    44    1
    29    43    46    1
    30    44    45    2
    31    46    47    1
    32   103   102    1
    33   103   104    2
    34    49    47   am
    35    47    48    2
    36   102   101    1
    37    99    98    1
    38    79    78    1
    39   107   108    1
    40    23    22    1
    41    98   100    1
    42    98    97    2
    43    80    78    1
    44    78    75    1
    45    97    96    1
    46    22    21    1
    47    21    20    1
    48    74    75    1
    49    89    86    1
    50    77    76    2
    51    14    13    1
    52    75    76    1
    53    76    81   am
    54    54    55    1
    55    54    51    1
    56    13    10    1
    57    53    52    2
    58    96    95    1
    59    55    56    1
    60    85    86    1
    61    85    83   am
    62    81    82    1
    63    57    56   ar
    64    52    51    1
    65    20    19    1
    66    82    83    1
    67    56    58   ar
    68    86    87    1
    69    88    87    2
    70    83    84    2
    71    19    16    1
    72    51    50    1
    73    10    11    1
    74    10     9    1
    75    66    64   am
    76    12    11    2
    77    95    94    1
    78    18    17    2
    79    16    17    1
    80    16    15    1
    81     9     3   am
    82    64    65    2
    83    64    63    1
    84    94    91    1
    85    63    60    1
    86    91    92    1
    87    91    90    1
    88     3     4    2
    89     3     2    1
    90     5     2    1
    91     5     6    1
    92    92    93    2
    93     7     6    1
    94     7     8    1
    95     2     1    1
    96    60    59    1
    97    60    61    1
    98    62    61    2
