@<TRIPOS>MOLECULE
tmp/2zdhD00.pdb
 208 195 0 0 0
SMALL
GASTEIGER

@<TRIPOS>ATOM
      1  N         58.1990  -56.3290  -47.9210 N.3   116  LYS116     -0.1245
      2  CA        59.4370  -55.7040  -48.3880 C.3   116  LYS116      0.1561
      3  C         59.3610  -54.1850  -48.4850 C.2   116  LYS116      0.2260
      4  O         60.3790  -53.4970  -48.3900 O.2   116  LYS116     -0.2867
      5  CB        59.8400  -56.2880  -49.7450 C.3   116  LYS116      0.0271
      6  CG        60.0310  -57.7980  -49.7190 C.3   116  LYS116      0.0035
      7  CD        60.5960  -58.3170  -51.0330 C.3   116  LYS116      0.0206
      8  CE        60.8060  -59.8170  -50.9640 C.3   116  LYS116      0.1093
      9  NZ        61.6580  -60.1570  -49.7930 N.3   116  LYS116     -0.1314
     10  N         68.3830  -50.4650  -50.3090 N.3   131  VAL131     -0.1245
     11  CA        68.4840  -50.0290  -51.6940 C.3   131  VAL131      0.1561
     12  C         67.3050  -49.1360  -52.0590 C.2   131  VAL131      0.2260
     13  O         66.2220  -49.2510  -51.4800 O.2   131  VAL131     -0.2867
     14  CB        68.5240  -51.2310  -52.6730 C.3   131  VAL131      0.0252
     15  CG1       69.6730  -52.1710  -52.2980 C.3   131  VAL131      0.0019
     16  CG2       67.2060  -51.9720  -52.6480 C.3   131  VAL131      0.0019
     17  N         64.9540  -54.8660  -59.7900 N.3   151  PHE151     -0.1241
     18  CA        64.5700  -56.1630  -59.2730 C.3   151  PHE151      0.1605
     19  C         63.1240  -55.8970  -58.8710 C.2   151  PHE151      0.2264
     20  O         62.8420  -54.9820  -58.0930 O.2   151  PHE151     -0.2867
     21  CB        65.4100  -56.5860  -58.0720 C.3   151  PHE151      0.0534
     22  CG        66.4520  -57.6010  -58.4210 C.ar  151  PHE151     -0.0203
     23  CD1       66.1390  -58.9610  -58.4410 C.ar  151  PHE151     -0.0042
     24  CD2       67.7230  -57.1990  -58.8110 C.ar  151  PHE151     -0.0042
     25  CE1       67.0820  -59.9040  -58.8500 C.ar  151  PHE151     -0.0003
     26  CE2       68.6740  -58.1360  -59.2250 C.ar  151  PHE151     -0.0003
     27  CZ        68.3510  -59.4890  -59.2440 C.ar  151  PHE151     -0.0000
     28  N         59.6130  -57.4930  -57.2950 N.3   153  LYS153     -0.1245
     29  CA        59.1870  -58.5850  -56.4280 C.3   153  LYS153      0.1561
     30  C         57.8370  -58.3270  -55.7900 C.2   153  LYS153      0.2260
     31  O         57.4240  -57.1790  -55.6290 O.2   153  LYS153     -0.2867
     32  CB        60.1810  -58.7770  -55.2770 C.3   153  LYS153      0.0271
     33  CG        61.5340  -58.1170  -55.4460 C.3   153  LYS153      0.0035
     34  CD        62.3260  -58.1630  -54.1390 C.3   153  LYS153      0.0206
     35  CE        63.7200  -57.5890  -54.3300 C.3   153  LYS153      0.1093
     36  NZ        64.5260  -57.6400  -53.0730 N.3   153  LYS153     -0.1314
     37  N         56.7290  -62.2430  -50.2330 N.3   157  THR157     -0.1203
     38  CA        57.1090  -63.4560  -50.9540 C.3   157  THR157      0.1994
     39  C         58.2830  -64.1390  -50.2610 C.2   157  THR157      0.2618
     40  O         58.7600  -63.6830  -49.2160 O.2   157  THR157     -0.2717
     41  CB        57.5280  -63.1380  -52.4110 C.3   157  THR157      0.1784
     42  OG1       57.7100  -64.3590  -53.1420 O.3   157  THR157     -0.2211
     43  CG2       58.8430  -62.3610  -52.4290 C.3   157  THR157      0.0376
     44  N         58.7540  -65.2280  -50.8580 N.am  158  GLY158     -0.1942
     45  CA        59.8790  -65.9510  -50.2950 C.3   158  GLY158      0.2014
     46  C         60.5150  -66.8540  -51.3330 C.2   158  GLY158      0.2640
     47  O         59.9160  -67.1210  -52.3730 O.2   158  GLY158     -0.2714
     48  N         61.7290  -67.3180  -51.0540 N.am  159  SER159     -0.1935
     49  CA        62.4500  -68.1990  -51.9650 C.3   159  SER159      0.2055
     50  C         62.4600  -67.6560  -53.3950 C.2   159  SER159      0.2643
     51  O         62.3070  -68.4040  -54.3640 O.2   159  SER159     -0.2714
     52  CB        61.8370  -69.6020  -51.9340 C.3   159  SER159      0.2130
     53  OG        60.4880  -69.5840  -52.3640 O.3   159  SER159     -0.2179
     54  N         62.6410  -66.3420  -53.5030 N.am  160  SER160     -0.1949
     55  CA        62.7020  -65.6330  -54.7780 C.3   160  SER160      0.1924
     56  C         61.5300  -65.8500  -55.7380 C.2   160  SER160      0.2314
     57  O         61.6800  -65.6980  -56.9540 O.2   160  SER160     -0.2863
     58  CB        64.0150  -65.9730  -55.4840 C.3   160  SER160      0.2116
     59  OG        65.1180  -65.6600  -54.6500 O.3   160  SER160     -0.2180
     60  N         59.9400  -63.0420  -58.5520 N.3   163  ILE163     -0.1245
     61  CA        60.9470  -61.9950  -58.6960 C.3   163  ILE163      0.1561
     62  C         61.6130  -61.9830  -60.0780 C.2   163  ILE163      0.2260
     63  O         61.9440  -63.0320  -60.6340 O.2   163  ILE163     -0.2867
     64  CB        62.0240  -62.1480  -57.5990 C.3   163  ILE163      0.0252
     65  CG1       61.3680  -62.0040  -56.2230 C.3   163  ILE163      0.0019
     66  CG2       63.1250  -61.1190  -57.7820 C.3   163  ILE163      0.0019
     67  CD1       62.3400  -62.1350  -55.0580 C.3   163  ILE163      0.0001
     68  N         62.9880  -52.3530  -56.9990 N.3   189  GLU189     -0.1231
     69  CA        64.2270  -51.9630  -56.3390 C.3   189  GLU189      0.1699
     70  C         65.3410  -51.7040  -57.3270 C.2   189  GLU189      0.2592
     71  O         65.3820  -52.3000  -58.4080 O.2   189  GLU189     -0.2718
     72  CB        64.6970  -53.0760  -55.3950 C.3   189  GLU189      0.0402
     73  CG        63.8990  -53.2460  -54.1180 C.3   189  GLU189      0.1161
     74  CD        64.3930  -54.4280  -53.2950 C.2   189  GLU189      0.3649
     75  OE1       65.5990  -54.7470  -53.3780 O.co2 189  GLU189     -0.2457
     76  OE2       63.5830  -55.0330  -52.5590 O.co2 189  GLU189     -0.2457
     77  N         66.2510  -50.8130  -56.9460 N.am  190  LYS190     -0.1980
     78  CA        67.4050  -50.5210  -57.7780 C.3   190  LYS190      0.1596
     79  C         68.2690  -51.7740  -57.6610 C.2   190  LYS190      0.2287
     80  O         68.5540  -52.2320  -56.5550 O.2   190  LYS190     -0.2864
     81  CB        68.1540  -49.3030  -57.2320 C.3   190  LYS190      0.0298
     82  CG        69.4390  -48.9560  -57.9730 C.3   190  LYS190      0.0038
     83  CD        69.1770  -48.4990  -59.3990 C.3   190  LYS190      0.0206
     84  CE        70.4580  -47.9660  -60.0440 C.3   190  LYS190      0.1093
     85  NZ        70.2540  -47.5470  -61.4590 N.3   190  LYS190     -0.1314
     86  N         71.5420  -54.0360  -57.6160 N.3   192  LEU192     -0.1245
     87  CA        72.9630  -53.9070  -57.2960 C.3   192  LEU192      0.1561
     88  C         73.7070  -54.9850  -58.0780 C.2   192  LEU192      0.2260
     89  O         73.3380  -56.1560  -58.0290 O.2   192  LEU192     -0.2867
     90  CB        73.1980  -54.1150  -55.7950 C.3   192  LEU192      0.0270
     91  CG        72.5320  -53.1320  -54.8290 C.3   192  LEU192      0.0019
     92  CD1       72.8060  -53.5600  -53.3980 C.3   192  LEU192      0.0001
     93  CD2       73.0610  -51.7220  -55.0710 C.3   192  LEU192      0.0001
     94  N         77.1620  -57.9640  -56.7860 N.3   195  VAL195     -0.1245
     95  CA        76.7710  -57.8810  -55.3860 C.3   195  VAL195      0.1561
     96  C         77.1000  -59.1690  -54.6460 C.2   195  VAL195      0.2260
     97  O         77.0500  -60.2590  -55.2200 O.2   195  VAL195     -0.2867
     98  CB        75.2510  -57.6140  -55.2390 C.3   195  VAL195      0.0252
     99  CG1       74.4530  -58.7840  -55.8130 C.3   195  VAL195      0.0019
    100  CG2       74.8940  -57.4010  -53.7720 C.3   195  VAL195      0.0019
    101  N         76.1990  -61.4210  -51.1410 N.3   197  GLU197     -0.1245
    102  CA        75.1060  -61.5890  -50.1960 C.3   197  GLU197      0.1567
    103  C         75.5740  -62.1620  -48.8650 C.2   197  GLU197      0.2260
    104  O         76.1250  -63.2610  -48.8050 O.2   197  GLU197     -0.2867
    105  CB        74.0280  -62.4820  -50.8130 C.3   197  GLU197      0.0388
    106  CG        73.5930  -61.9850  -52.1840 C.3   197  GLU197      0.1160
    107  CD        72.2990  -62.6000  -52.6550 C.2   197  GLU197      0.3649
    108  OE1       72.2440  -63.0100  -53.8290 O.co2 197  GLU197     -0.2457
    109  OE2       71.3360  -62.6650  -51.8590 O.co2 197  GLU197     -0.2457
    110  N         77.1680  -68.0850  -55.6950 N.3   218  TYR218     -0.1241
    111  CA        76.5810  -68.8760  -56.7670 C.3   218  TYR218      0.1605
    112  C         77.0400  -68.3160  -58.1090 C.2   218  TYR218      0.2264
    113  O         77.6640  -67.2560  -58.1610 O.2   218  TYR218     -0.2867
    114  CB        75.0580  -68.7980  -56.6630 C.3   218  TYR218      0.0534
    115  CG        74.5590  -67.3740  -56.5440 C.ar  218  TYR218     -0.0201
    116  CD1       74.4690  -66.5470  -57.6660 C.ar  218  TYR218     -0.0009
    117  CD2       74.2320  -66.8330  -55.3010 C.ar  218  TYR218     -0.0009
    118  CE1       74.0670  -65.2150  -57.5520 C.ar  218  TYR218      0.0417
    119  CE2       73.8320  -65.5020  -55.1740 C.ar  218  TYR218      0.0417
    120  CZ        73.7520  -64.6990  -56.3030 C.ar  218  TYR218      0.1957
    121  OH        73.3720  -63.3810  -56.1800 O.3   218  TYR218     -0.2866
    122  N         71.2600  -64.3620  -60.2990 N.3   222  PHE222     -0.1227
    123  CA        71.0130  -63.9550  -58.9240 C.3   222  PHE222      0.1736
    124  C         70.5470  -65.1680  -58.1250 C.2   222  PHE222      0.2595
    125  O         70.4240  -66.2660  -58.6740 O.2   222  PHE222     -0.2718
    126  CB        70.0020  -62.7950  -58.8640 C.3   222  PHE222      0.0547
    127  CG        68.5930  -63.1660  -59.2380 C.ar  222  PHE222     -0.0202
    128  CD1       67.7050  -63.6470  -58.2760 C.ar  222  PHE222     -0.0042
    129  CD2       68.1340  -62.9810  -60.5400 C.ar  222  PHE222     -0.0042
    130  CE1       66.3790  -63.9310  -58.6040 C.ar  222  PHE222     -0.0003
    131  CE2       66.8090  -63.2630  -60.8800 C.ar  222  PHE222     -0.0003
    132  CZ        65.9300  -63.7370  -59.9100 C.ar  222  PHE222     -0.0000
    133  N         70.3080  -64.9820  -56.8320 N.am  223  TYR223     -0.1976
    134  CA        69.8910  -66.0870  -55.9770 C.3   223  TYR223      0.1639
    135  C         68.4790  -66.5740  -56.3190 C.2   223  TYR223      0.2290
    136  O         67.5190  -66.2890  -55.6010 O.2   223  TYR223     -0.2864
    137  CB        69.9740  -65.6600  -54.5060 C.3   223  TYR223      0.0560
    138  CG        70.2680  -66.7840  -53.5310 C.ar  223  TYR223     -0.0198
    139  CD1       70.2290  -66.5610  -52.1550 C.ar  223  TYR223     -0.0009
    140  CD2       70.5830  -68.0690  -53.9820 C.ar  223  TYR223     -0.0009
    141  CE1       70.4930  -67.5870  -51.2500 C.ar  223  TYR223      0.0417
    142  CE2       70.8490  -69.1040  -53.0860 C.ar  223  TYR223      0.0417
    143  CZ        70.8010  -68.8560  -51.7210 C.ar  223  TYR223      0.1957
    144  OH        71.0530  -69.8750  -50.8300 O.3   223  TYR223     -0.2866
    145  N         68.5830  -71.5510  -55.1720 N.3   228  LYS228     -0.1245
    146  CA        68.3000  -71.5970  -53.7420 C.3   228  LYS228      0.1561
    147  C         68.0480  -73.0030  -53.1940 C.2   228  LYS228      0.2260
    148  O         68.5240  -73.3420  -52.1100 O.2   228  LYS228     -0.2867
    149  CB        67.0860  -70.7110  -53.4340 C.3   228  LYS228      0.0271
    150  CG        67.3280  -69.6040  -52.4090 C.3   228  LYS228      0.0035
    151  CD        67.4430  -70.1480  -50.9880 C.3   228  LYS228      0.0206
    152  CE        67.5470  -69.0160  -49.9660 C.3   228  LYS228      0.1093
    153  NZ        67.5860  -69.5050  -48.5550 N.3   228  LYS228     -0.1314
    154  N         66.8230  -64.1370  -39.3600 N.3   268  ARG268     -0.1245
    155  CA        68.0480  -64.1870  -40.1390 C.3   268  ARG268      0.1563
    156  C         67.9650  -62.8910  -40.9200 C.2   268  ARG268      0.2260
    157  O         66.9810  -62.6540  -41.6280 O.2   268  ARG268     -0.2867
    158  CB        68.0810  -65.3660  -41.1090 C.3   268  ARG268      0.0307
    159  CG        69.4740  -65.5710  -41.7030 C.3   268  ARG268      0.0489
    160  CD        69.4540  -66.5440  -42.8640 C.3   268  ARG268      0.2205
    161  NE        68.7470  -65.9700  -44.0030 N.pl3 268  ARG268     -0.0865
    162  CZ        67.7190  -66.5510  -44.6070 C.cat 268  ARG268      0.5346
    163  NH1       67.1310  -65.9560  -45.6380 N.pl3 268  ARG268      0.1354
    164  NH2       67.2850  -67.7290  -44.1810 N.pl3 268  ARG268      0.1354
    165  N         69.3980  -60.5940  -43.8390 N.3   270  ASP270     -0.1239
    166  CA        70.1790  -60.6770  -45.0700 C.3   270  ASP270      0.1674
    167  C         70.5830  -59.3090  -45.6120 C.2   270  ASP270      0.2266
    168  O         69.7760  -58.3770  -45.6490 O.2   270  ASP270     -0.2867
    169  CB        69.3880  -61.4540  -46.1260 C.3   270  ASP270      0.1410
    170  CG        68.9140  -62.8090  -45.6160 C.2   270  ASP270      0.3668
    171  OD1       69.6140  -63.4040  -44.7670 O.co2 270  ASP270     -0.2456
    172  OD2       67.8560  -63.2880  -46.0710 O.co2 270  ASP270     -0.2456
    173  N         73.2010  -56.9600  -48.5940 N.3   272  PHE272     -0.1241
    174  CA        73.8440  -56.8960  -49.8970 C.3   272  PHE272      0.1605
    175  C         75.1070  -56.0740  -49.6800 C.2   272  PHE272      0.2264
    176  O         75.0860  -55.0840  -48.9490 O.2   272  PHE272     -0.2867
    177  CB        72.9640  -56.1830  -50.9320 C.3   272  PHE272      0.0534
    178  CG        71.7590  -56.9690  -51.3590 C.ar  272  PHE272     -0.0203
    179  CD1       71.8450  -58.3400  -51.5740 C.ar  272  PHE272     -0.0042
    180  CD2       70.5420  -56.3290  -51.5840 C.ar  272  PHE272     -0.0042
    181  CE1       70.7360  -59.0660  -52.0090 C.ar  272  PHE272     -0.0003
    182  CE2       69.4330  -57.0380  -52.0190 C.ar  272  PHE272     -0.0003
    183  CZ        69.5290  -58.4130  -52.2320 C.ar  272  PHE272     -0.0000
    184  N         68.8510  -56.1390  -46.9520 N.3   281  ASN281     -0.1225
    185  CA        67.8660  -56.6390  -47.9030 C.3   281  ASN281      0.1785
    186  C         66.5650  -57.0410  -47.2270 C.2   281  ASN281      0.2597
    187  O         65.4980  -56.5650  -47.6060 O.2   281  ASN281     -0.2718
    188  CB        68.4410  -57.8320  -48.6810 C.3   281  ASN281      0.1169
    189  CG        67.4230  -58.4700  -49.6140 C.2   281  ASN281      0.2627
    190  OD1       66.7170  -57.7790  -50.3470 O.2   281  ASN281     -0.2716
    191  ND2       67.3530  -59.8000  -49.5980 N.am  281  ASN281     -0.0877
    192  N         66.6440  -57.9110  -46.2250 N.am  282  GLU282     -0.1979
    193  CA        65.4330  -58.3320  -45.5380 C.3   282  GLU282      0.1602
    194  C         65.6940  -59.0780  -44.2400 C.2   282  GLU282      0.2287
    195  O         66.7950  -59.5870  -44.0040 O.2   282  GLU282     -0.2864
    196  CB        64.5990  -59.2340  -46.4480 C.3   282  GLU282      0.0415
    197  CG        65.1560  -60.6420  -46.5800 C.3   282  GLU282      0.1163
    198  CD        64.1790  -61.6090  -47.2270 C.2   282  GLU282      0.3649
    199  OE1       63.0000  -61.6400  -46.8210 O.co2 282  GLU282     -0.2457
    200  OE2       64.5950  -62.3520  -48.1320 O.co2 282  GLU282     -0.2457
    201  N         64.1880  -62.2100  -41.9220 N.3   284  ASN284     -0.1240
    202  CA        63.3540  -63.4030  -42.0220 C.3   284  ASN284      0.1653
    203  C         63.0790  -63.8510  -40.5970 C.2   284  ASN284      0.2266
    204  O         64.0030  -64.2550  -39.8860 O.2   284  ASN284     -0.2867
    205  CB        64.1040  -64.4950  -42.7920 C.3   284  ASN284      0.1155
    206  CG        64.5550  -64.0290  -44.1660 C.2   284  ASN284      0.2627
    207  OD1       63.7500  -63.9070  -45.0900 O.2   284  ASN284     -0.2716
    208  ND2       65.8460  -63.7510  -44.3000 N.am  284  ASN284     -0.0877
@<TRIPOS>BOND
     1    85    84    1
     2   131   129   ar
     3   131   132   ar
     4    63    62    2
     5   129   127   ar
     6   122   123    1
     7    62    61    1
     8    84    83    1
     9   132   130   ar
    10    17    18    1
    11    83    82    1
    12    18    19    1
    13    18    21    1
    14    27    26   ar
    15    27    25   ar
    16   127   126    1
    17   127   128   ar
    18    26    24   ar
    19   123   126    1
    20   123   124    1
    21    19    20    2
    22    25    23   ar
    23    24    22   ar
    24    61    60    1
    25    61    64    1
    26   125   124    2
    27   130   128   ar
    28    23    22   ar
    29    22    21    1
    30    71    70    2
    31   113   112    2
    32   124   133   am
    33   112   111    1
    34    88    89    2
    35    88    87    1
    36    82    81    1
    37    66    64    1
    38    78    79    1
    39    78    81    1
    40    78    77    1
    41   116   118   ar
    42   116   115   ar
    43    79    80    2
    44    86    87    1
    45    64    65    1
    46   118   120   ar
    47    70    77   am
    48    70    69    1
    49    87    90    1
    50    28    29    1
    51    68    69    1
    52    57    56    2
    53   133   134    1
    54    94    95    1
    55   111   114    1
    56   111   110    1
    57   114   115    1
    58   115   117   ar
    59    29    30    1
    60    29    32    1
    61    69    72    1
    62   135   134    1
    63   135   136    2
    64   120   121    1
    65   120   119   ar
    66    65    67    1
    67   134   137    1
    68    99    98    1
    69    90    91    1
    70    30    31    2
    71    56    55    1
    72    58    55    1
    73    58    59    1
    74    33    32    1
    75    33    34    1
    76    72    73    1
    77    95    98    1
    78    95    96    1
    79   117   119   ar
    80    98   100    1
    81    97    96    2
    82   145   146    1
    83    93    91    1
    84    91    92    1
    85    55    54    1
    86   137   138    1
    87    51    50    2
    88    35    34    1
    89    35    36    1
    90    73    74    1
    91   140   138   ar
    92   140   142   ar
    93   108   107   ar
    94   146   149    1
    95   146   147    1
    96   138   139   ar
    97    54    50   am
    98   149   150    1
    99    50    49    1
   100    75    74   ar
   101    74    76   ar
   102   147   148    2
   103    42    41    1
   104   142   143   ar
   105    14    16    1
   106    14    15    1
   107    14    11    1
   108   107   106    1
   109   107   109   ar
   110    43    41    1
   111    41    38    1
   112   150   151    1
   113    47    46    2
   114    53    52    1
   115   183   182   ar
   116   183   181   ar
   117   106   105    1
   118   139   141   ar
   119    12    11    1
   120    12    13    2
   121   182   180   ar
   122   181   179   ar
   123    49    52    1
   124    49    48    1
   125   143   141   ar
   126   143   144    1
   127    11    10    1
   128   180   178   ar
   129   179   178   ar
   130   178   177    1
   131    46    48   am
   132    46    45    1
   133   101   102    1
   134     7     8    1
   135     7     6    1
   136   151   152    1
   137     8     9    1
   138    38    39    1
   139    38    37    1
   140   177   174    1
   141    44    45    1
   142    44    39   am
   143   105   102    1
   144   190   189    2
   145    39    40    2
   146   102   103    1
   147   152   153    1
   148   174   175    1
   149   174   173    1
   150     5     6    1
   151     5     2    1
   152   175   176    2
   153   189   191   am
   154   189   188    1
   155   103   104    2
   156   188   185    1
   157     3     4    2
   158     3     2    1
   159     2     1    1
   160   200   198   ar
   161   185   186    1
   162   185   184    1
   163   187   186    2
   164   186   192   am
   165   198   199   ar
   166   198   197    1
   167   197   196    1
   168   196   193    1
   169   192   193    1
   170   169   170    1
   171   169   166    1
   172   172   170   ar
   173   168   167    2
   174   163   162    1
   175   170   171   ar
   176   167   166    1
   177   193   194    1
   178   207   206    2
   179   166   165    1
   180   162   164    1
   181   162   161    2
   182   208   206   am
   183   194   195    2
   184   206   205    1
   185   161   160    1
   186   160   159    1
   187   205   202    1
   188   202   201    1
   189   202   203    1
   190   159   158    1
   191   157   156    2
   192   158   155    1
   193   156   155    1
   194   203   204    2
   195   155   154    1
