@<TRIPOS>MOLECULE
tmp/2zdkA00.pdb
 162 159 0 0 0
SMALL
GASTEIGER

@<TRIPOS>ATOM
      1  N        -29.3750   -4.1510    8.7580 N.3    40  HIS40      -0.1241
      2  CA       -29.8880   -2.7960    9.0380 C.3    40  HIS40       0.1621
      3  C        -29.5120   -1.8420    7.9150 C.2    40  HIS40       0.2264
      4  O        -29.9660   -0.6940    7.8980 O.2    40  HIS40      -0.2867
      5  CB       -29.4250   -2.2950   10.3950 C.3    40  HIS40       0.0745
      6  CG       -28.0470   -1.7550   10.5190 C.ar   40  HIS40       0.0817
      7  ND1      -27.0640   -2.5060   11.1710 N.ar   40  HIS40      -0.2268
      8  CD2      -27.4590   -0.5830   10.1630 C.ar   40  HIS40       0.1154
      9  CE1      -25.9350   -1.8130   11.1760 C.ar   40  HIS40       0.1986
     10  NE2      -26.1490   -0.6520   10.5720 N.ar   40  HIS40      -0.2212
     11  N        -35.1810   -6.1490   13.7760 N.3    78  SER78      -0.1202
     12  CA       -34.7510   -4.7520   13.7310 C.3    78  SER78       0.2020
     13  C        -34.7820   -4.1000   15.1060 C.2    78  SER78       0.2619
     14  O        -34.0930   -3.0790   15.3160 O.2    78  SER78      -0.2717
     15  CB       -35.6210   -4.0040   12.7360 C.3    78  SER78       0.2103
     16  OG       -36.9950   -3.9700   13.1120 O.3    78  SER78      -0.2182
     17  N        -35.5290   -4.6590   16.0630 N.am   79  ASN79      -0.1960
     18  CA       -35.6180   -4.0210   17.3740 C.3    79  ASN79       0.1819
     19  C        -34.3750   -4.3330   18.2200 C.2    79  ASN79       0.2622
     20  O        -33.9550   -3.5140   19.0320 O.2    79  ASN79      -0.2715
     21  CB       -36.8330   -4.4640   18.1890 C.3    79  ASN79       0.1195
     22  CG       -38.1700   -3.9920   17.6550 C.2    79  ASN79       0.2630
     23  OD1      -38.3030   -2.9570   17.0250 O.2    79  ASN79      -0.2716
     24  ND2      -39.2130   -4.7880   17.8720 N.am   79  ASN79      -0.0877
     25  N        -33.8360   -5.5380   18.0770 N.am   80  THR80      -0.1937
     26  CA       -32.6960   -5.9930   18.8520 C.3    80  THR80       0.2028
     27  C        -31.4240   -6.1580   18.0150 C.2    80  THR80       0.2642
     28  O        -30.3410   -6.3680   18.5980 O.2    80  THR80      -0.2714
     29  CB       -33.0300   -7.3340   19.4950 C.3    80  THR80       0.1808
     30  OG1      -33.4400   -8.2650   18.4790 O.3    80  THR80      -0.2208
     31  CG2      -34.2980   -7.3400   20.3400 C.3    80  THR80       0.0379
     32  N        -31.4940   -6.1200   16.6950 N.am   81  LEU81      -0.1977
     33  CA       -30.4690   -6.3710   15.7000 C.3    81  LEU81       0.1596
     34  C        -29.8310   -7.7510   15.7630 C.2    81  LEU81       0.2287
     35  O        -28.7630   -8.1090   15.3040 O.2    81  LEU81      -0.2864
     36  CB       -29.3130   -5.3600   15.7730 C.3    81  LEU81       0.0297
     37  CG       -29.6700   -3.9140   15.4420 C.3    81  LEU81       0.0022
     38  CD1      -28.4110   -3.0240   15.4370 C.3    81  LEU81       0.0001
     39  CD2      -30.3800   -3.7490   14.1240 C.3    81  LEU81       0.0001
     40  N        -28.7670   -7.7640   26.1400 N.3   155  GLN155     -0.1245
     41  CA       -28.8590   -7.3070   24.7430 C.3   155  GLN155      0.1566
     42  C        -27.9990   -8.1440   23.8090 C.2   155  GLN155      0.2260
     43  O        -28.1440   -8.0670   22.5810 O.2   155  GLN155     -0.2867
     44  CB       -28.3910   -5.8590   24.5840 C.3   155  GLN155      0.0367
     45  CG       -29.2430   -4.8060   25.3090 C.3   155  GLN155      0.0905
     46  CD       -28.7850   -3.4120   24.9180 C.2   155  GLN155      0.2608
     47  OE1      -27.9500   -2.7980   25.5550 O.2   155  GLN155     -0.2717
     48  NE2      -29.3160   -2.9000   23.8240 N.am  155  GLN155     -0.0878
     49  N        -12.5530    2.3860   17.8530 N.3   171  ASP171     -0.1225
     50  CA       -13.8170    1.6680   17.6450 C.3   171  ASP171      0.1805
     51  C        -14.3180    1.9030   16.2350 C.2   171  ASP171      0.2598
     52  O        -13.7480    2.7530   15.5550 O.2   171  ASP171     -0.2718
     53  CB       -14.7910    2.1530   18.7070 C.3   171  ASP171      0.1424
     54  CG       -16.0700    1.3760   18.8590 C.2   171  ASP171      0.3668
     55  OD1      -16.9420    1.8650   19.6150 O.co2 171  ASP171     -0.2456
     56  OD2      -16.2160    0.2990   18.2550 O.co2 171  ASP171     -0.2456
     57  N        -15.3640    1.1860   15.8390 N.am  172  SER172     -0.1938
     58  CA       -16.0060    1.5330   14.5690 C.3   172  SER172      0.2055
     59  C        -17.1240    2.5060   14.9310 C.2   172  SER172      0.2643
     60  O        -17.2940    2.7720   16.1300 O.2   172  SER172     -0.2714
     61  CB       -16.5160    0.3030   13.8350 C.3   172  SER172      0.2130
     62  OG       -17.4290   -0.4570   14.6240 O.3   172  SER172     -0.2179
     63  N        -17.8550    3.0480   13.9580 N.am  173  CYS173     -0.1953
     64  CA       -18.8560    4.0670   14.2500 C.3   173  CYS173      0.1843
     65  C        -19.8860    4.1710   13.1390 C.2   173  CYS173      0.2625
     66  O        -19.8160    3.4120   12.1710 O.2   173  CYS173     -0.2714
     67  CB       -18.0960    5.3880   14.4540 C.3   173  CYS173      0.0997
     68  SG       -19.0530    6.6520   15.3240 S.3   173  CYS173     -0.0797
     69  N        -20.8570    5.0680   13.2350 N.am  174  GLN174     -0.1977
     70  CA       -21.8370    5.2680   12.1710 C.3   174  GLN174      0.1601
     71  C        -21.1640    5.4290   10.8160 C.2   174  GLN174      0.2287
     72  O        -20.1290    6.0900   10.6910 O.2   174  GLN174     -0.2864
     73  CB       -22.7000    6.4950   12.4910 C.3   174  GLN174      0.0394
     74  CG       -23.8870    6.1620   13.4050 C.3   174  GLN174      0.0908
     75  CD       -23.4830    5.9200   14.8410 C.2   174  GLN174      0.2608
     76  OE1      -22.4920    6.4770   15.3260 O.2   174  GLN174     -0.2717
     77  NE2      -24.2340    5.0700   15.5400 N.am  174  GLN174     -0.0878
     78  N        -21.1760    0.7290    9.4520 N.3   177  SER177     -0.1217
     79  CA       -22.2430   -0.2630    9.3890 C.3   177  SER177      0.1889
     80  C        -22.1280   -1.1940    8.2060 C.2   177  SER177      0.2288
     81  O        -22.0070   -0.6980    7.0960 O.2   177  SER177     -0.2866
     82  CB       -23.5950    0.4560    9.2210 C.3   177  SER177      0.2089
     83  OG       -24.1130    0.9260   10.4440 O.3   177  SER177     -0.2183
     84  N        -19.9960   -5.0040   11.0500 N.3   191  VAL191     -0.1231
     85  CA       -20.2480   -3.8570   11.9170 C.3   191  VAL191      0.1692
     86  C        -21.7520   -3.6860   12.1050 C.2   191  VAL191      0.2593
     87  O        -22.5050   -3.4840   11.1470 O.2   191  VAL191     -0.2718
     88  CB       -19.6480   -2.5820   11.3350 C.3   191  VAL191      0.0266
     89  CG1      -19.9940   -1.4250   12.2660 C.3   191  VAL191      0.0020
     90  CG2      -18.1430   -2.5760   11.1070 C.3   191  VAL191      0.0020
     91  N        -22.2080   -3.7900   13.3390 N.am  192  SER192     -0.1938
     92  CA       -23.6150   -3.8420   13.6790 C.3   192  SER192      0.2055
     93  C        -24.0190   -2.7170   14.6140 C.2   192  SER192      0.2643
     94  O        -24.7690   -1.8810   14.1040 O.2   192  SER192     -0.2714
     95  CB       -23.9670   -5.1990   14.2930 C.3   192  SER192      0.2130
     96  OG       -25.3440   -5.3960   14.5040 O.3   192  SER192     -0.2179
     97  N        -23.5760   -2.6930   15.8650 N.am  193  TRP193     -0.1959
     98  CA       -24.0600   -1.6240   16.7580 C.3   193  TRP193      0.1771
     99  C        -23.0850   -1.3540   17.8950 C.2   193  TRP193      0.2620
    100  O        -22.0140   -1.9270   17.9110 O.2   193  TRP193     -0.2715
    101  CB       -25.4210   -1.9880   17.2740 C.3   193  TRP193      0.0590
    102  CG       -25.6450   -3.2340   18.0700 C.ar  193  TRP193      0.0006
    103  CD1      -25.8820   -4.4880   17.5830 C.ar  193  TRP193      0.0946
    104  CD2      -25.6820   -3.3750   19.5030 C.ar  193  TRP193      0.0152
    105  NE1      -26.0500   -5.3930   18.6060 N.ar  193  TRP193     -0.2442
    106  CE2      -25.9300   -4.7270   19.7930 C.ar  193  TRP193      0.0810
    107  CE3      -25.5220   -2.5000   20.5780 C.ar  193  TRP193      0.0012
    108  CZ2      -26.0300   -5.2560   21.0910 C.ar  193  TRP193      0.0191
    109  CZ3      -25.6170   -3.0070   21.8640 C.ar  193  TRP193      0.0001
    110  CH2      -25.8670   -4.3550   22.1010 C.ar  193  TRP193      0.0015
    111  N        -23.4650   -0.4840   18.8200 N.am  194  GLY194     -0.1940
    112  CA       -22.6870   -0.1550   20.0060 C.3   194  GLY194      0.2014
    113  C        -23.2750    1.1140   20.6010 C.2   194  GLY194      0.2640
    114  O        -24.1540    1.7020   19.9640 O.2   194  GLY194     -0.2714
    115  N        -22.8610    1.5000   21.7780 N.am  195  SER195     -0.1935
    116  CA       -23.3700    2.7200   22.4020 C.3   195  SER195      0.2055
    117  C        -22.3150    3.8140   22.1930 C.2   195  SER195      0.2644
    118  O        -21.1800    3.7090   22.6510 O.2   195  SER195     -0.2714
    119  CB       -23.6980    2.5530   23.8700 C.3   195  SER195      0.2130
    120  OG       -24.5870    1.4780   24.1200 O.3   195  SER195     -0.2179
    121  N        -22.7600    4.8310   21.4600 N.am  196  GLY196     -0.1939
    122  CA       -21.8380    5.8510   21.0210 C.3   196  GLY196      0.2014
    123  C        -20.7670    5.2000   20.1580 C.2   196  GLY196      0.2639
    124  O        -21.0070    4.1850   19.5140 O.2   196  GLY196     -0.2714
    125  N        -19.5900    5.7970   20.1690 N.am  197  CYS197     -0.1967
    126  CA       -18.4300    5.2590   19.4820 C.3   197  CYS197      0.1712
    127  C        -17.1540    5.5080   20.2930 C.2   197  CYS197      0.2296
    128  O        -16.9240    6.6670   20.6340 O.2   197  CYS197     -0.2864
    129  CB       -18.1950    5.9010   18.1110 C.3   197  CYS197      0.0983
    130  SG       -19.6430    5.7630   17.0410 S.3   197  CYS197     -0.0798
    131  N        -17.8900    0.4620   26.4670 N.3   202  LYS202     -0.1197
    132  CA       -18.9180    0.3930   25.4360 C.3   202  LYS202      0.1778
    133  C        -18.2990   -0.1000   24.1370 C.2   202  LYS202      0.2305
    134  O        -18.2300    0.6590   23.1700 O.2   202  LYS202     -0.2863
    135  CB       -19.5700    1.7520   25.1810 C.2   202  LYS202     -0.0042
    136  CG       -20.5220    2.2870   26.2180 C.2   202  LYS202     -0.0273
    137  CD       -20.9220    1.3470   27.3120 C.3   202  LYS202      0.0462
    138  CE       -22.1670    0.5210   27.0480 C.3   202  LYS202      0.1140
    139  NZ       -22.7340    0.0480   28.3490 N.3   202  LYS202     -0.1310
    140  N        -17.5370   -2.2180   20.4790 N.3   204  GLY204     -0.1210
    141  CA       -18.4630   -2.4210   19.3550 C.3   204  GLY204      0.1956
    142  C        -19.0110   -3.8290   19.3600 C.2   204  GLY204      0.2612
    143  O        -18.3270   -4.7290   19.8610 O.2   204  GLY204     -0.2717
    144  N        -20.1940   -3.9390   18.7640 N.am  205  VAL205     -0.1965
    145  CA       -20.9240   -5.2000   18.6500 C.3   205  VAL205      0.1727
    146  C        -21.0360   -5.5490   17.1710 C.2   205  VAL205      0.2616
    147  O        -21.3740   -4.6810   16.3590 O.2   205  VAL205     -0.2715
    148  CB       -22.3050   -5.1750   19.3250 C.3   205  VAL205      0.0290
    149  CG1      -22.9190   -6.5690   19.4440 C.3   205  VAL205      0.0023
    150  CG2      -22.2060   -4.5690   20.7170 C.3   205  VAL205      0.0023
    151  N        -20.6820   -6.8100   16.9070 N.am  206  TYR206     -0.1974
    152  CA       -20.5580   -7.3290   15.5450 C.3   206  TYR206      0.1639
    153  C        -21.3730   -8.5840   15.3190 C.2   206  TYR206      0.2290
    154  O        -21.4650   -9.4430   16.1790 O.2   206  TYR206     -0.2864
    155  CB       -19.0450   -7.5890   15.2790 C.3   206  TYR206      0.0560
    156  CG       -18.2880   -6.2930   15.4840 C.ar  206  TYR206     -0.0198
    157  CD1      -18.1860   -5.3970   14.4380 C.ar  206  TYR206     -0.0009
    158  CD2      -17.6760   -5.9560   16.6890 C.ar  206  TYR206     -0.0009
    159  CE1      -17.5140   -4.2020   14.5240 C.ar  206  TYR206      0.0417
    160  CE2      -17.0110   -4.7520   16.7990 C.ar  206  TYR206      0.0417
    161  CZ       -16.9320   -3.8950   15.7350 C.ar  206  TYR206      0.1957
    162  OH       -16.2780   -2.6990   15.8550 O.3   206  TYR206     -0.2866
@<TRIPOS>BOND
     1    81    80    2
     2     4     3    2
     3     3     2    1
     4    80    79    1
     5     1     2    1
     6     2     5    1
     7    82    79    1
     8    82    83    1
     9    79    78    1
    10     8     6   ar
    11     8    10   ar
    12     5     6    1
    13     6     7   ar
    14    10     9   ar
    15    72    71    2
    16    71    70    1
    17    84    85    1
    18    90    88    1
    19    87    86    2
    20     7     9   ar
    21    88    85    1
    22    88    89    1
    23    85    86    1
    24    86    91   am
    25    70    73    1
    26    70    69    1
    27    66    65    2
    28    73    74    1
    29    15    16    1
    30    15    12    1
    31    65    69   am
    32    65    64    1
    33    91    92    1
    34    74    75    1
    35    92    95    1
    36    92    93    1
    37    12    11    1
    38    12    13    1
    39    61    58    1
    40    61    62    1
    41    63    64    1
    42    63    59   am
    43    94    93    2
    44    39    37    1
    45    64    67    1
    46    95    96    1
    47   157   159   ar
    48   157   156   ar
    49    67    68    1
    50   159   161   ar
    51    58    59    1
    52    58    57    1
    53    93    97   am
    54    75    76    2
    55    75    77   am
    56    59    60    2
    57    13    14    2
    58    13    17   am
    59   155   156    1
    60   155   152    1
    61    35    34    2
    62   153   152    1
    63   153   154    2
    64    68   130    1
    65    38    37    1
    66    37    36    1
    67   156   158   ar
    68   152   151    1
    69    52    51    2
    70    33    34    1
    71    33    36    1
    72    33    32    1
    73   161   162    1
    74   161   160   ar
    75    57    51   am
    76    97    98    1
    77    17    18    1
    78    51    50    1
    79   147   146    2
    80   158   160   ar
    81    32    27   am
    82    98   101    1
    83    98    99    1
    84   151   146   am
    85    23    22    2
    86   130   129    1
    87   146   145    1
    88   101   102    1
    89    18    21    1
    90    18    19    1
    91   103   102   ar
    92   103   105   ar
    93    50    49    1
    94    50    53    1
    95    22    24   am
    96    22    21    1
    97    99   100    2
    98    99   111   am
    99    27    28    2
   100    27    26    1
   101   102   104   ar
   102    25    19   am
   103    25    26    1
   104   129   126    1
   105    19    20    2
   106    56    54   ar
   107    30    29    1
   108   105   106   ar
   109   145   144    1
   110   145   148    1
   111    53    54    1
   112   144   142   am
   113   111   112    1
   114    26    29    1
   115    54    55   ar
   116   148   149    1
   117   148   150    1
   118   141   142    1
   119   141   140    1
   120   142   143    2
   121   126   125    1
   122   126   127    1
   123    29    31    1
   124   104   106   ar
   125   104   107   ar
   126   124   123    2
   127   106   108   ar
   128   114   113    2
   129   112   113    1
   130   123   125   am
   131   123   122    1
   132   127   128    2
   133   107   109   ar
   134   113   115   am
   135   122   121    1
   136   108   110   ar
   137   121   117   am
   138   115   116    1
   139   109   110   ar
   140   117   116    1
   141   117   118    2
   142   116   119    1
   143    43    42    2
   144   134   133    2
   145    42    41    1
   146    48    46   am
   147   119   120    1
   148   133   132    1
   149    44    41    1
   150    44    45    1
   151    41    40    1
   152    46    45    1
   153    46    47    2
   154   135   132    1
   155   135   136    2
   156   132   131    1
   157   136   137    1
   158   138   137    1
   159   138   139    1
