@<TRIPOS>MOLECULE
tmp/2zdlA00.pdb
 162 159 0 0 0
SMALL
GASTEIGER

@<TRIPOS>ATOM
      1  N        -29.4640   -4.1090    8.7840 N.3    40  HIS40      -0.1241
      2  CA       -29.9430   -2.7450    9.0230 C.3    40  HIS40       0.1621
      3  C        -29.4890   -1.7940    7.9160 C.2    40  HIS40       0.2264
      4  O        -29.9270   -0.6390    7.9060 O.2    40  HIS40      -0.2867
      5  CB       -29.5210   -2.2410   10.3990 C.3    40  HIS40       0.0745
      6  CG       -28.1320   -1.7480   10.6020 C.ar   40  HIS40       0.0817
      7  ND1      -27.1490   -2.5030   11.2250 N.ar   40  HIS40      -0.2268
      8  CD2      -27.5370   -0.5730   10.2760 C.ar   40  HIS40       0.1154
      9  CE1      -26.0250   -1.8200   11.2640 C.ar   40  HIS40       0.1986
     10  NE2      -26.2280   -0.6380   10.6960 N.ar   40  HIS40      -0.2212
     11  N        -35.2600   -6.1220   13.8020 N.3    78  SER78      -0.1202
     12  CA       -34.7610   -4.7500   13.7250 C.3    78  SER78       0.2020
     13  C        -34.8320   -4.0290   15.0700 C.2    78  SER78       0.2619
     14  O        -34.2330   -2.9840   15.2890 O.2    78  SER78      -0.2717
     15  CB       -35.5400   -3.9750   12.6560 C.3    78  SER78       0.2103
     16  OG       -36.9230   -3.8930   12.9580 O.3    78  SER78      -0.2182
     17  N        -35.5620   -4.5920   16.0210 N.am   79  ASN79      -0.1960
     18  CA       -35.6680   -3.9370   17.3210 C.3    79  ASN79       0.1819
     19  C        -34.4120   -4.1950   18.1420 C.2    79  ASN79       0.2622
     20  O        -33.9030   -3.3610   18.8890 O.2    79  ASN79      -0.2715
     21  CB       -36.9050   -4.4750   18.0440 C.3    79  ASN79       0.1195
     22  CG       -38.2240   -3.8540   17.6420 C.2    79  ASN79       0.2630
     23  OD1      -38.3270   -2.9450   16.8210 O.2    79  ASN79      -0.2716
     24  ND2      -39.3200   -4.3240   18.2320 N.am   79  ASN79      -0.0877
     25  N        -33.8910   -5.4110   17.9980 N.am   80  THR80      -0.1937
     26  CA       -32.7690   -5.8590   18.8290 C.3    80  THR80       0.2028
     27  C        -31.4870   -6.0610   18.0220 C.2    80  THR80       0.2642
     28  O        -30.4170   -6.2900   18.5860 O.2    80  THR80      -0.2714
     29  CB       -33.1310   -7.1860   19.5050 C.3    80  THR80       0.1808
     30  OG1      -33.5500   -8.1180   18.4950 O.3    80  THR80      -0.2208
     31  CG2      -34.3540   -7.1560   20.4170 C.3    80  THR80       0.0379
     32  N        -31.5780   -6.0210   16.7050 N.am   81  LEU81      -0.1977
     33  CA       -30.5700   -6.2680   15.6870 C.3    81  LEU81       0.1596
     34  C        -29.9660   -7.6700   15.7440 C.2    81  LEU81       0.2287
     35  O        -28.8390   -7.9440   15.3420 O.2    81  LEU81      -0.2864
     36  CB       -29.4460   -5.2350   15.7210 C.3    81  LEU81       0.0297
     37  CG       -29.7350   -3.7640   15.4800 C.3    81  LEU81       0.0022
     38  CD1      -28.4380   -3.0480   15.0690 C.3    81  LEU81       0.0001
     39  CD2      -30.8400   -3.5010   14.4730 C.3    81  LEU81       0.0001
     40  N        -28.9040   -7.5310   26.0950 N.3   155  GLN155     -0.1245
     41  CA       -29.0420   -7.1440   24.6920 C.3   155  GLN155      0.1566
     42  C        -28.1970   -8.0320   23.7850 C.2   155  GLN155      0.2260
     43  O        -28.3680   -7.9630   22.5630 O.2   155  GLN155     -0.2867
     44  CB       -28.6400   -5.6960   24.4310 C.3   155  GLN155      0.0367
     45  CG       -29.2840   -4.6050   25.2470 C.3   155  GLN155      0.0905
     46  CD       -28.8230   -3.2210   24.8090 C.2   155  GLN155      0.2608
     47  OE1      -29.4450   -2.6130   23.9450 O.2   155  GLN155     -0.2717
     48  NE2      -27.7410   -2.7180   25.3820 N.am  155  GLN155     -0.0878
     49  N        -12.7430    2.4110   18.0160 N.3   171  ASP171     -0.1225
     50  CA       -14.0110    1.7240   17.7510 C.3   171  ASP171      0.1805
     51  C        -14.4890    2.0110   16.3270 C.2   171  ASP171      0.2598
     52  O        -13.9620    2.9110   15.6760 O.2   171  ASP171     -0.2718
     53  CB       -15.0480    2.2000   18.7600 C.3   171  ASP171      0.1424
     54  CG       -16.3200    1.4040   18.9120 C.2   171  ASP171      0.3668
     55  OD1      -17.1710    1.8400   19.7300 O.co2 171  ASP171     -0.2456
     56  OD2      -16.4880    0.3550   18.2500 O.co2 171  ASP171     -0.2456
     57  N        -15.5050    1.2740   15.8910 N.am  172  SER172     -0.1938
     58  CA       -16.2190    1.5790   14.6550 C.3   172  SER172      0.2055
     59  C        -17.3260    2.5720   15.0020 C.2   172  SER172      0.2643
     60  O        -17.4710    2.9020   16.1910 O.2   172  SER172     -0.2714
     61  CB       -16.7510    0.3230   13.9950 C.3   172  SER172      0.2130
     62  OG       -17.6620   -0.4260   14.7910 O.3   172  SER172     -0.2179
     63  N        -18.1020    3.0640   14.0530 N.am  173  CYS173     -0.1953
     64  CA       -19.0950    4.1030   14.2910 C.3   173  CYS173      0.1843
     65  C        -20.0850    4.1930   13.1370 C.2   173  CYS173      0.2625
     66  O        -19.9350    3.4680   12.1520 O.2   173  CYS173     -0.2714
     67  CB       -18.3740    5.4460   14.4460 C.3   173  CYS173      0.0997
     68  SG       -19.2710    6.7030   15.3640 S.3   173  CYS173     -0.0797
     69  N        -21.0620    5.0810   13.2680 N.am  174  GLN174     -0.1977
     70  CA       -22.0140    5.3570   12.2040 C.3   174  GLN174      0.1601
     71  C        -21.3160    5.4960   10.8470 C.2   174  GLN174      0.2287
     72  O        -20.3180    6.2000   10.7670 O.2   174  GLN174     -0.2864
     73  CB       -22.7960    6.6440   12.4750 C.3   174  GLN174      0.0394
     74  CG       -23.4290    6.8130   13.8380 C.3   174  GLN174      0.0908
     75  CD       -24.4880    5.7700   14.1430 C.2   174  GLN174      0.2608
     76  OE1      -25.3690    5.4940   13.3260 O.2   174  GLN174     -0.2717
     77  NE2      -24.3980    5.1790   15.3310 N.am  174  GLN174     -0.0878
     78  N        -21.2610    0.8330    9.4390 N.3   177  SER177     -0.1217
     79  CA       -22.2690   -0.2240    9.4550 C.3   177  SER177      0.1889
     80  C        -22.1670   -1.1410    8.2360 C.2   177  SER177      0.2288
     81  O        -22.0330   -0.6390    7.1170 O.2   177  SER177     -0.2866
     82  CB       -23.6820    0.3600    9.4730 C.3   177  SER177      0.2089
     83  OG       -24.0940    0.9920   10.6540 O.3   177  SER177     -0.2183
     84  N        -19.9650   -4.9570   11.1020 N.3   191  VAL191     -0.1231
     85  CA       -20.2680   -3.7930   11.9500 C.3   191  VAL191      0.1692
     86  C        -21.7740   -3.6380   12.1360 C.2   191  VAL191      0.2593
     87  O        -22.5520   -3.4330   11.2100 O.2   191  VAL191     -0.2718
     88  CB       -19.6490   -2.5030   11.4080 C.3   191  VAL191      0.0266
     89  CG1      -19.8770   -1.3510   12.3750 C.3   191  VAL191      0.0020
     90  CG2      -18.1480   -2.6540   11.1590 C.3   191  VAL191      0.0020
     91  N        -22.2440   -3.7490   13.3840 N.am  192  SER192     -0.1938
     92  CA       -23.6710   -3.7920   13.6800 C.3   192  SER192      0.2055
     93  C        -24.0930   -2.6630   14.6060 C.2   192  SER192      0.2643
     94  O        -24.8090   -1.7810   14.1550 O.2   192  SER192     -0.2714
     95  CB       -24.0550   -5.1290   14.3050 C.3   192  SER192      0.2130
     96  OG       -25.4330   -5.3390   14.5010 O.3   192  SER192     -0.2179
     97  N        -23.6770   -2.6890   15.8760 N.am  193  TRP193     -0.1959
     98  CA       -24.1680   -1.6300   16.7580 C.3   193  TRP193      0.1771
     99  C        -23.1880   -1.3610   17.8990 C.2   193  TRP193      0.2620
    100  O        -22.0730   -1.8880   17.9320 O.2   193  TRP193     -0.2715
    101  CB       -25.5900   -1.9340   17.2240 C.3   193  TRP193      0.0590
    102  CG       -25.8030   -3.1510   18.0510 C.ar  193  TRP193      0.0006
    103  CD1      -25.9510   -4.4330   17.6060 C.ar  193  TRP193      0.0946
    104  CD2      -25.9030   -3.2020   19.4860 C.ar  193  TRP193      0.0152
    105  NE1      -26.1370   -5.2930   18.6620 N.ar  193  TRP193     -0.2442
    106  CE2      -26.1050   -4.5490   19.8230 C.ar  193  TRP193      0.0810
    107  CE3      -25.8310   -2.2150   20.4770 C.ar  193  TRP193      0.0012
    108  CZ2      -26.2410   -4.9510   21.1530 C.ar  193  TRP193      0.0191
    109  CZ3      -25.9660   -2.6210   21.7910 C.ar  193  TRP193      0.0001
    110  CH2      -26.1670   -3.9670   22.0990 C.ar  193  TRP193      0.0015
    111  N        -23.6110   -0.5120   18.8330 N.am  194  GLY194     -0.1940
    112  CA       -22.8270   -0.1130   20.0000 C.3   194  GLY194      0.2014
    113  C        -23.5180    1.0950   20.6320 C.2   194  GLY194      0.2640
    114  O        -24.4120    1.6880   20.0200 O.2   194  GLY194     -0.2714
    115  N        -23.1260    1.4900   21.8380 N.am  195  SER195     -0.1935
    116  CA       -23.6800    2.7070   22.4160 C.3   195  SER195      0.2055
    117  C        -22.7530    3.8870   22.1730 C.2   195  SER195      0.2644
    118  O        -21.6410    3.9390   22.6890 O.2   195  SER195     -0.2714
    119  CB       -23.9130    2.4870   23.9070 C.3   195  SER195      0.2130
    120  OG       -24.3340    3.6730   24.5540 O.3   195  SER195     -0.2179
    121  N        -23.1710    4.8700   21.3830 N.am  196  GLY196     -0.1939
    122  CA       -22.1760    5.8860   21.0260 C.3   196  GLY196      0.2014
    123  C        -21.0700    5.2280   20.2010 C.2   196  GLY196      0.2639
    124  O        -21.3120    4.1740   19.6020 O.2   196  GLY196     -0.2714
    125  N        -19.8950    5.8180   20.1730 N.am  197  CYS197     -0.1967
    126  CA       -18.6800    5.3400   19.5640 C.3   197  CYS197      0.1712
    127  C        -17.4370    5.6870   20.3860 C.2   197  CYS197      0.2296
    128  O        -17.2050    6.8430   20.7460 O.2   197  CYS197     -0.2864
    129  CB       -18.4480    5.9490   18.1700 C.3   197  CYS197      0.0983
    130  SG       -19.8710    5.8120   17.0730 S.3   197  CYS197     -0.0798
    131  N        -18.1380    0.6120   26.5430 N.3   202  LYS202     -0.1245
    132  CA       -19.1710    0.3790   25.5370 C.3   202  LYS202      0.1561
    133  C        -18.5370   -0.0420   24.2140 C.2   202  LYS202      0.2260
    134  O        -18.4710    0.7790   23.2890 O.2   202  LYS202     -0.2867
    135  CB       -20.0230    1.6470   25.4050 C.3   202  LYS202      0.0271
    136  CG       -20.8610    1.9170   26.6620 C.3   202  LYS202      0.0035
    137  CD       -22.0040    0.9150   26.7640 C.3   202  LYS202      0.0206
    138  CE       -22.7940    0.9540   28.0530 C.3   202  LYS202      0.1093
    139  NZ       -24.2310    0.6410   27.7960 N.3   202  LYS202     -0.1314
    140  N        -17.7050   -2.0620   20.5690 N.3   204  GLY204     -0.1210
    141  CA       -18.5970   -2.2600   19.4350 C.3   204  GLY204      0.1956
    142  C        -19.1780   -3.6670   19.4330 C.2   204  GLY204      0.2612
    143  O        -18.5300   -4.6190   19.8870 O.2   204  GLY204     -0.2717
    144  N        -20.3940   -3.7810   18.9110 N.am  205  VAL205     -0.1965
    145  CA       -21.0660   -5.0730   18.7810 C.3   205  VAL205      0.1727
    146  C        -21.1530   -5.4600   17.3010 C.2   205  VAL205      0.2616
    147  O        -21.5210   -4.6480   16.4640 O.2   205  VAL205     -0.2715
    148  CB       -22.4470   -5.0640   19.4430 C.3   205  VAL205      0.0290
    149  CG1      -23.0410   -6.4640   19.5380 C.3   205  VAL205      0.0023
    150  CG2      -22.3780   -4.4800   20.8520 C.3   205  VAL205      0.0023
    151  N        -20.7830   -6.6890   16.9970 N.am  206  TYR206     -0.1974
    152  CA       -20.6660   -7.1950   15.6340 C.3   206  TYR206      0.1639
    153  C        -21.4500   -8.4620   15.3980 C.2   206  TYR206      0.2290
    154  O        -21.5870   -9.3440   16.2510 O.2   206  TYR206     -0.2864
    155  CB       -19.1610   -7.4720   15.3740 C.3   206  TYR206      0.0560
    156  CG       -18.3510   -6.2100   15.6250 C.ar  206  TYR206     -0.0198
    157  CD1      -18.2780   -5.2920   14.5830 C.ar  206  TYR206     -0.0009
    158  CD2      -17.7010   -5.8920   16.8010 C.ar  206  TYR206     -0.0009
    159  CE1      -17.5850   -4.1180   14.6750 C.ar  206  TYR206      0.0417
    160  CE2      -16.9950   -4.6990   16.9010 C.ar  206  TYR206      0.0417
    161  CZ       -16.9180   -3.8200   15.8560 C.ar  206  TYR206      0.1957
    162  OH       -16.2640   -2.6180   15.9020 O.3   206  TYR206     -0.2866
@<TRIPOS>BOND
     1    81    80    2
     2     4     3    2
     3     3     2    1
     4    80    79    1
     5     1     2    1
     6     2     5    1
     7    78    79    1
     8    79    82    1
     9    82    83    1
    10     8     6   ar
    11     8    10   ar
    12     5     6    1
    13     6     7   ar
    14    10     9   ar
    15    72    71    2
    16    71    70    1
    17    84    85    1
    18    90    88    1
    19    87    86    2
    20     7     9   ar
    21    88    85    1
    22    88    89    1
    23    85    86    1
    24    86    91   am
    25    66    65    2
    26    70    73    1
    27    70    69    1
    28    73    74    1
    29    15    16    1
    30    15    12    1
    31    65    69   am
    32    65    64    1
    33    76    75    2
    34    91    92    1
    35    92    95    1
    36    92    93    1
    37    12    11    1
    38    12    13    1
    39    74    75    1
    40    61    58    1
    41    61    62    1
    42    63    64    1
    43    63    59   am
    44    75    77   am
    45    94    93    2
    46    64    67    1
    47    95    96    1
    48    67    68    1
    49    39    37    1
    50   157   159   ar
    51   157   156   ar
    52    93    97   am
    53    58    59    1
    54    58    57    1
    55   159   161   ar
    56    59    60    2
    57    38    37    1
    58    13    14    2
    59    13    17   am
    60    35    34    2
    61    68   130    1
    62   155   156    1
    63   155   152    1
    64   153   152    1
    65   153   154    2
    66    37    36    1
    67   156   158   ar
    68   152   151    1
    69    52    51    2
    70    33    36    1
    71    33    34    1
    72    33    32    1
    73   161   162    1
    74   161   160   ar
    75    97    98    1
    76    57    51   am
    77    17    18    1
    78    51    50    1
    79   147   146    2
    80    32    27   am
    81    98   101    1
    82    98    99    1
    83   158   160   ar
    84    23    22    2
    85   151   146   am
    86   130   129    1
    87   101   102    1
    88   146   145    1
    89    18    21    1
    90    18    19    1
    91   103   102   ar
    92   103   105   ar
    93    22    21    1
    94    22    24   am
    95    50    49    1
    96    50    53    1
    97    99   100    2
    98    99   111   am
    99    25    19   am
   100    25    26    1
   101    27    28    2
   102    27    26    1
   103   102   104   ar
   104    19    20    2
   105   129   126    1
   106    56    54   ar
   107    30    29    1
   108   105   106   ar
   109    53    54    1
   110   145   144    1
   111   145   148    1
   112    26    29    1
   113   111   112    1
   114   144   142   am
   115    54    55   ar
   116   142   141    1
   117   142   143    2
   118   141   140    1
   119   148   149    1
   120   148   150    1
   121   104   106   ar
   122   104   107   ar
   123    29    31    1
   124   126   125    1
   125   126   127    1
   126   124   123    2
   127   106   108   ar
   128   112   113    1
   129   114   113    2
   130   125   123   am
   131   123   122    1
   132   127   128    2
   133   107   109   ar
   134   113   115   am
   135   122   121    1
   136   108   110   ar
   137   121   117   am
   138   109   110   ar
   139   115   116    1
   140   117   116    1
   141   117   118    2
   142   116   119    1
   143    43    42    2
   144   134   133    2
   145    42    41    1
   146   119   120    1
   147    47    46    2
   148   133   132    1
   149    44    41    1
   150    44    45    1
   151    41    40    1
   152    46    45    1
   153    46    48   am
   154   135   132    1
   155   135   136    1
   156   132   131    1
   157   136   137    1
   158   137   138    1
   159   139   138    1
