@<TRIPOS>MOLECULE
tmp/2zdmA00.pdb
 162 159 0 0 0
SMALL
GASTEIGER

@<TRIPOS>ATOM
      1  N        -28.9940   -4.1890    8.7640 N.3    40  HIS40      -0.1241
      2  CA       -29.5050   -2.8380    9.0310 C.3    40  HIS40       0.1621
      3  C        -29.1410   -1.8980    7.8870 C.2    40  HIS40       0.2264
      4  O        -29.6170   -0.7690    7.7610 O.2    40  HIS40      -0.2867
      5  CB       -29.0130   -2.3350   10.3720 C.3    40  HIS40       0.0745
      6  CG       -27.6080   -1.8710   10.5290 C.ar   40  HIS40       0.0817
      7  ND1      -26.6320   -2.6440   11.1140 N.ar   40  HIS40      -0.2268
      8  CD2      -26.9980   -0.7030   10.2140 C.ar   40  HIS40       0.1154
      9  CE1      -25.4850   -1.9730   11.1270 C.ar   40  HIS40       0.1986
     10  NE2      -25.6860   -0.7870   10.5840 N.ar   40  HIS40      -0.2212
     11  N        -34.8580   -6.1970   13.8290 N.3    78  SER78      -0.1202
     12  CA       -34.3390   -4.8360   13.8210 C.3    78  SER78       0.2020
     13  C        -34.3180   -4.2120   15.2160 C.2    78  SER78       0.2619
     14  O        -33.5410   -3.3070   15.5160 O.2    78  SER78      -0.2717
     15  CB       -35.1940   -4.0110   12.8600 C.3    78  SER78       0.2103
     16  OG       -36.5520   -4.0200   13.2760 O.3    78  SER78      -0.2182
     17  N        -35.1940   -4.6880   16.1000 N.am   79  ASN79      -0.1960
     18  CA       -35.3190   -4.0900   17.4220 C.3    79  ASN79       0.1819
     19  C        -34.1020   -4.3930   18.2910 C.2    79  ASN79       0.2622
     20  O        -33.7610   -3.6110   19.1750 O.2    79  ASN79      -0.2715
     21  CB       -36.5550   -4.5960   18.1640 C.3    79  ASN79       0.1195
     22  CG       -37.8880   -4.1010   17.6440 C.2    79  ASN79       0.2630
     23  OD1      -38.0890   -3.0020   17.1500 O.2    79  ASN79      -0.2716
     24  ND2      -38.8740   -4.9830   17.7710 N.am   79  ASN79      -0.0877
     25  N        -33.4710   -5.5310   18.0570 N.am   80  THR80      -0.1937
     26  CA       -32.3300   -5.9470   18.8630 C.3    80  THR80       0.2028
     27  C        -31.0400   -6.1080   18.0540 C.2    80  THR80       0.2642
     28  O        -29.9570   -6.1830   18.6400 O.2    80  THR80      -0.2714
     29  CB       -32.5900   -7.2880   19.5720 C.3    80  THR80       0.1808
     30  OG1      -32.9810   -8.3080   18.6480 O.3    80  THR80      -0.2208
     31  CG2      -33.7760   -7.2190   20.5170 C.3    80  THR80       0.0379
     32  N        -31.1240   -6.1880   16.7380 N.am   81  LEU81      -0.1977
     33  CA       -30.0150   -6.3220   15.8060 C.3    81  LEU81       0.1596
     34  C        -29.3980   -7.7160   15.8430 C.2    81  LEU81       0.2287
     35  O        -28.2710   -7.9870   15.4660 O.2    81  LEU81      -0.2864
     36  CB       -28.9630   -5.2440   16.0430 C.3    81  LEU81       0.0297
     37  CG       -29.3120   -3.8040   15.6860 C.3    81  LEU81       0.0022
     38  CD1      -28.0350   -3.0040   15.4280 C.3    81  LEU81       0.0001
     39  CD2      -30.2300   -3.6920   14.4780 C.3    81  LEU81       0.0001
     40  N        -28.2470   -7.6400   26.2150 N.3   155  GLN155     -0.1245
     41  CA       -28.3800   -7.1790   24.8230 C.3   155  GLN155      0.1566
     42  C        -27.5310   -7.9860   23.8490 C.2   155  GLN155      0.2260
     43  O        -27.6630   -7.8020   22.6310 O.2   155  GLN155     -0.2867
     44  CB       -27.9860   -5.7090   24.6720 C.3   155  GLN155      0.0367
     45  CG       -28.8980   -4.7190   25.3690 C.3   155  GLN155      0.0905
     46  CD       -28.6230   -3.2840   24.9690 C.2   155  GLN155      0.2608
     47  OE1      -27.6470   -2.6730   25.3980 O.2   155  GLN155     -0.2717
     48  NE2      -29.5030   -2.7560   24.1310 N.am  155  GLN155     -0.0878
     49  N        -12.2330    2.4790   17.8840 N.3   171  ASP171     -0.1225
     50  CA       -13.4890    1.7880   17.6250 C.3   171  ASP171      0.1805
     51  C        -13.9690    2.0040   16.1940 C.2   171  ASP171      0.2598
     52  O        -13.4590    2.8660   15.4930 O.2   171  ASP171     -0.2718
     53  CB       -14.5690    2.3150   18.5720 C.3   171  ASP171      0.1424
     54  CG       -15.7920    1.4450   18.7370 C.2   171  ASP171      0.3668
     55  OD1      -16.7320    1.8920   19.4460 O.co2 171  ASP171     -0.2456
     56  OD2      -15.8380    0.3280   18.1760 O.co2 171  ASP171     -0.2456
     57  N        -14.9790    1.2520   15.7780 N.am  172  SER172     -0.1938
     58  CA       -15.6850    1.6020   14.5380 C.3   172  SER172      0.2055
     59  C        -16.8230    2.5540   14.9060 C.2   172  SER172      0.2643
     60  O        -17.0300    2.8340   16.0990 O.2   172  SER172     -0.2714
     61  CB       -16.1510    0.3480   13.8290 C.3   172  SER172      0.2130
     62  OG       -17.0420   -0.4180   14.6280 O.3   172  SER172     -0.2179
     63  N        -17.5530    3.0710   13.9230 N.am  173  CYS173     -0.1953
     64  CA       -18.5400    4.1170   14.1960 C.3   173  CYS173      0.1843
     65  C        -19.5700    4.2080   13.0830 C.2   173  CYS173      0.2625
     66  O        -19.5550    3.4320   12.1200 O.2   173  CYS173     -0.2714
     67  CB       -17.8110    5.4480   14.3910 C.3   173  CYS173      0.0997
     68  SG       -18.7660    6.7270   15.2480 S.3   173  CYS173     -0.0797
     69  N        -20.4830    5.1650   13.1780 N.am  174  GLN174     -0.1977
     70  CA       -21.5050    5.3350   12.1470 C.3   174  GLN174      0.1601
     71  C        -20.8650    5.5060   10.7670 C.2   174  GLN174      0.2287
     72  O        -19.8960    6.2540   10.6570 O.2   174  GLN174     -0.2864
     73  CB       -22.3870    6.5450   12.4310 C.3   174  GLN174      0.0394
     74  CG       -22.9990    6.6300   13.8090 C.3   174  GLN174      0.0908
     75  CD       -24.0470    5.5900   14.1240 C.2   174  GLN174      0.2608
     76  OE1      -24.0670    5.0550   15.2380 O.2   174  GLN174     -0.2717
     77  NE2      -24.9340    5.2810   13.1830 N.am  174  GLN174     -0.0878
     78  N        -20.8810    0.7830    9.3380 N.3   177  SER177     -0.1217
     79  CA       -21.9150   -0.2310    9.2880 C.3   177  SER177      0.1889
     80  C        -21.7770   -1.1540    8.0760 C.2   177  SER177      0.2288
     81  O        -21.6630   -0.6540    6.9560 O.2   177  SER177     -0.2866
     82  CB       -23.3060    0.4050    9.2030 C.3   177  SER177      0.2089
     83  OG       -23.8070    0.8870   10.4230 O.3   177  SER177     -0.2183
     84  N        -19.6380   -5.0080   10.9340 N.3   191  VAL191     -0.1231
     85  CA       -19.8280   -3.8450   11.8080 C.3   191  VAL191      0.1692
     86  C        -21.3070   -3.6360   12.0970 C.2   191  VAL191      0.2593
     87  O        -22.1080   -3.3370   11.2180 O.2   191  VAL191     -0.2718
     88  CB       -19.2060   -2.5740   11.2210 C.3   191  VAL191      0.0266
     89  CG1      -19.4590   -1.4150   12.1730 C.3   191  VAL191      0.0020
     90  CG2      -17.7100   -2.7120   10.9640 C.3   191  VAL191      0.0020
     91  N        -21.7200   -3.8120   13.3530 N.am  192  SER192     -0.1938
     92  CA       -23.1590   -3.8190   13.6250 C.3   192  SER192      0.2055
     93  C        -23.5870   -2.6860   14.5330 C.2   192  SER192      0.2643
     94  O        -24.3250   -1.7990   14.0910 O.2   192  SER192     -0.2714
     95  CB       -23.5660   -5.1660   14.2300 C.3   192  SER192      0.2130
     96  OG       -24.9480   -5.1970   14.5360 O.3   192  SER192     -0.2179
     97  N        -23.1500   -2.6880   15.8020 N.am  193  TRP193     -0.1959
     98  CA       -23.6700   -1.5980   16.6290 C.3   193  TRP193      0.1771
     99  C        -22.7430   -1.2680   17.7870 C.2   193  TRP193      0.2620
    100  O        -21.6440   -1.8060   17.9410 O.2   193  TRP193     -0.2715
    101  CB       -25.0760   -1.9380   17.1080 C.3   193  TRP193      0.0590
    102  CG       -25.3110   -3.1680   17.9150 C.ar  193  TRP193      0.0006
    103  CD1      -25.5410   -4.4370   17.4590 C.ar  193  TRP193      0.0946
    104  CD2      -25.3470   -3.2520   19.3510 C.ar  193  TRP193      0.0152
    105  NE1      -25.7130   -5.2950   18.5190 N.ar  193  TRP193     -0.2442
    106  CE2      -25.5990   -4.5910   19.6920 C.ar  193  TRP193      0.0810
    107  CE3      -25.1860   -2.3100   20.3740 C.ar  193  TRP193      0.0012
    108  CZ2      -25.6960   -5.0200   21.0190 C.ar  193  TRP193      0.0191
    109  CZ3      -25.2830   -2.7380   21.6850 C.ar  193  TRP193      0.0001
    110  CH2      -25.5350   -4.0760   22.0070 C.ar  193  TRP193      0.0015
    111  N        -23.2020   -0.3270   18.6160 N.am  194  GLY194     -0.1940
    112  CA       -22.4220    0.0050   19.8070 C.3   194  GLY194      0.2014
    113  C        -23.0310    1.2120   20.4850 C.2   194  GLY194      0.2640
    114  O        -23.8860    1.8660   19.8920 O.2   194  GLY194     -0.2714
    115  N        -22.6290    1.5220   21.7140 N.am  195  SER195     -0.1935
    116  CA       -23.1560    2.7480   22.3190 C.3   195  SER195      0.2055
    117  C        -22.1410    3.8740   22.1010 C.2   195  SER195      0.2644
    118  O        -21.0370    3.8220   22.6470 O.2   195  SER195     -0.2714
    119  CB       -23.4750    2.5530   23.7980 C.3   195  SER195      0.2130
    120  OG       -23.8590    3.7910   24.3780 O.3   195  SER195     -0.2179
    121  N        -22.5240    4.8610   21.2930 N.am  196  GLY196     -0.1939
    122  CA       -21.6180    5.9100   20.8430 C.3   196  GLY196      0.2014
    123  C        -20.4840    5.3260   20.0240 C.2   196  GLY196      0.2639
    124  O        -20.6450    4.2740   19.4050 O.2   196  GLY196     -0.2714
    125  N        -19.3330    5.9760   20.0050 N.am  197  CYS197     -0.1967
    126  CA       -18.1350    5.4170   19.4130 C.3   197  CYS197      0.1712
    127  C        -16.8950    5.7390   20.2390 C.2   197  CYS197      0.2296
    128  O        -16.6860    6.8930   20.6040 O.2   197  CYS197     -0.2864
    129  CB       -17.9130    5.9590   18.0000 C.3   197  CYS197      0.0983
    130  SG       -19.3770    5.7620   16.9470 S.3   197  CYS197     -0.0798
    131  N        -17.6850    0.6780   26.4540 N.3   202  LYS202     -0.1245
    132  CA       -18.7090    0.4990   25.4400 C.3   202  LYS202      0.1561
    133  C        -18.0160    0.1320   24.1280 C.2   202  LYS202      0.2260
    134  O        -17.9060    0.9560   23.2280 O.2   202  LYS202     -0.2867
    135  CB       -19.5590    1.7410   25.2280 C.3   202  LYS202      0.0271
    136  CG       -19.9450    2.5240   26.4680 C.3   202  LYS202      0.0035
    137  CD       -20.7780    3.7320   26.0830 C.3   202  LYS202      0.0206
    138  CE       -20.5990    4.9080   27.0300 C.3   202  LYS202      0.1093
    139  NZ       -21.2000    6.1470   26.4480 N.3   202  LYS202     -0.1314
    140  N        -17.2220   -2.0080   20.4640 N.3   204  GLY204     -0.1210
    141  CA       -18.0670   -2.2450   19.2940 C.3   204  GLY204      0.1956
    142  C        -18.6600   -3.6420   19.2660 C.2   204  GLY204      0.2612
    143  O        -18.0250   -4.5980   19.7130 O.2   204  GLY204     -0.2717
    144  N        -19.8860   -3.7650   18.7460 N.am  205  VAL205     -0.1965
    145  CA       -20.5620   -5.0520   18.6680 C.3   205  VAL205      0.1727
    146  C        -20.6540   -5.4570   17.1880 C.2   205  VAL205      0.2616
    147  O        -21.0550   -4.6590   16.3500 O.2   205  VAL205     -0.2715
    148  CB       -21.9550   -5.0870   19.3140 C.3   205  VAL205      0.0290
    149  CG1      -22.4450   -6.5260   19.4680 C.3   205  VAL205      0.0023
    150  CG2      -21.9740   -4.4060   20.6800 C.3   205  VAL205      0.0023
    151  N        -20.2500   -6.6900   16.9320 N.am  206  TYR206     -0.1974
    152  CA       -20.0910   -7.2360   15.5950 C.3   206  TYR206      0.1639
    153  C        -20.9430   -8.4690   15.3550 C.2   206  TYR206      0.2290
    154  O        -21.1200   -9.3070   16.2440 O.2   206  TYR206     -0.2864
    155  CB       -18.5720   -7.4860   15.4020 C.3   206  TYR206      0.0560
    156  CG       -17.8290   -6.1680   15.5490 C.ar  206  TYR206     -0.0198
    157  CD1      -17.6830   -5.3530   14.4400 C.ar  206  TYR206     -0.0009
    158  CD2      -17.2930   -5.7360   16.7570 C.ar  206  TYR206     -0.0009
    159  CE1      -17.0300   -4.1440   14.4870 C.ar  206  TYR206      0.0417
    160  CE2      -16.6370   -4.5150   16.8200 C.ar  206  TYR206      0.0417
    161  CZ       -16.5060   -3.7360   15.6980 C.ar  206  TYR206      0.1957
    162  OH       -15.8600   -2.5310   15.7460 O.3   206  TYR206     -0.2866
@<TRIPOS>BOND
     1    81    80    2
     2     4     3    2
     3     3     2    1
     4    80    79    1
     5     1     2    1
     6     2     5    1
     7    82    79    1
     8    82    83    1
     9    79    78    1
    10     8     6   ar
    11     8    10   ar
    12     5     6    1
    13     6     7   ar
    14    10     9   ar
    15    72    71    2
    16    71    70    1
    17    84    85    1
    18    90    88    1
    19     7     9   ar
    20    87    86    2
    21    88    85    1
    22    88    89    1
    23    85    86    1
    24    86    91   am
    25    66    65    2
    26    70    73    1
    27    70    69    1
    28    73    74    1
    29    15    16    1
    30    15    12    1
    31    65    69   am
    32    65    64    1
    33    77    75   am
    34    91    92    1
    35    92    95    1
    36    92    93    1
    37    74    75    1
    38    12    11    1
    39    12    13    1
    40    61    58    1
    41    61    62    1
    42    63    64    1
    43    63    59   am
    44    94    93    2
    45    75    76    2
    46    64    67    1
    47    95    96    1
    48    67    68    1
    49   157   159   ar
    50   157   156   ar
    51    39    37    1
    52   159   161   ar
    53    93    97   am
    54    58    59    1
    55    58    57    1
    56    59    60    2
    57    13    14    2
    58    13    17   am
    59    68   130    1
    60   153   152    1
    61   153   154    2
    62   155   156    1
    63   155   152    1
    64    38    37    1
    65    35    34    2
    66    52    51    2
    67   156   158   ar
    68   152   151    1
    69    37    36    1
    70   161   162    1
    71   161   160   ar
    72    57    51   am
    73    97    98    1
    74    33    34    1
    75    33    36    1
    76    33    32    1
    77    17    18    1
    78    51    50    1
    79   147   146    2
    80    98   101    1
    81    98    99    1
    82    32    27   am
    83   158   160   ar
    84   151   146   am
    85   130   129    1
    86   101   102    1
    87    23    22    2
    88   146   145    1
    89    18    21    1
    90    18    19    1
    91   103   102   ar
    92   103   105   ar
    93    50    49    1
    94    50    53    1
    95    22    24   am
    96    22    21    1
    97    99   100    2
    98    99   111   am
    99   102   104   ar
   100   129   126    1
   101    27    28    2
   102    27    26    1
   103    25    19   am
   104    25    26    1
   105    56    54   ar
   106    19    20    2
   107   105   106   ar
   108    53    54    1
   109   111   112    1
   110    30    29    1
   111   145   144    1
   112   145   148    1
   113    54    55   ar
   114   144   142   am
   115    26    29    1
   116   142   141    1
   117   142   143    2
   118   141   140    1
   119   148   149    1
   120   148   150    1
   121   104   106   ar
   122   104   107   ar
   123   124   123    2
   124   126   125    1
   125   126   127    1
   126    29    31    1
   127   106   108   ar
   128   112   113    1
   129   114   113    2
   130   125   123   am
   131   123   122    1
   132   127   128    2
   133   107   109   ar
   134   113   115   am
   135   122   121    1
   136   108   110   ar
   137   121   117   am
   138   109   110   ar
   139   115   116    1
   140   117   116    1
   141   117   118    2
   142   116   119    1
   143    43    42    2
   144   134   133    2
   145   119   120    1
   146    42    41    1
   147   133   132    1
   148    48    46   am
   149    44    41    1
   150    44    45    1
   151    41    40    1
   152    46    45    1
   153    46    47    2
   154   135   132    1
   155   135   136    1
   156   132   131    1
   157   137   136    1
   158   137   138    1
   159   139   138    1
