@<TRIPOS>MOLECULE
tmp/2zdnA00.pdb
 162 159 0 0 0
SMALL
GASTEIGER

@<TRIPOS>ATOM
      1  N        -29.5420   -4.0870    8.8680 N.3    40  HIS40      -0.1241
      2  CA       -29.9830   -2.7220    9.1670 C.3    40  HIS40       0.1621
      3  C        -29.5740   -1.7650    8.0520 C.2    40  HIS40       0.2264
      4  O        -30.0180   -0.6240    7.9910 O.2    40  HIS40      -0.2867
      5  CB       -29.4460   -2.2640   10.5140 C.3    40  HIS40       0.0745
      6  CG       -28.0370   -1.8070   10.6440 C.ar   40  HIS40       0.0817
      7  ND1      -27.0350   -2.5930   11.1690 N.ar   40  HIS40      -0.2268
      8  CD2      -27.4340   -0.6300   10.3450 C.ar   40  HIS40       0.1154
      9  CE1      -25.8900   -1.9260   11.1660 C.ar   40  HIS40       0.1986
     10  NE2      -26.1040   -0.7220   10.6670 N.ar   40  HIS40      -0.2212
     11  N        -35.1880   -6.0590   13.8580 N.3    78  SER78      -0.1202
     12  CA       -34.7740   -4.6610   13.7950 C.3    78  SER78       0.2020
     13  C        -34.7530   -3.9680   15.1510 C.2    78  SER78       0.2619
     14  O        -34.0810   -2.9460   15.3170 O.2    78  SER78      -0.2717
     15  CB       -35.7050   -3.8980   12.8490 C.3    78  SER78       0.2103
     16  OG       -37.0700   -4.0360   13.1980 O.3    78  SER78      -0.2182
     17  N        -35.4920   -4.5180   16.1090 N.am   79  ASN79      -0.1960
     18  CA       -35.6060   -3.9260   17.4340 C.3    79  ASN79       0.1819
     19  C        -34.3510   -4.2020   18.2480 C.2    79  ASN79       0.2622
     20  O        -33.9320   -3.3490   19.0310 O.2    79  ASN79      -0.2715
     21  CB       -36.8290   -4.4600   18.1860 C.3    79  ASN79       0.1195
     22  CG       -38.1380   -3.8760   17.6870 C.2    79  ASN79       0.2630
     23  OD1      -38.2800   -2.6910   17.4000 O.2    79  ASN79      -0.2716
     24  ND2      -39.1410   -4.7340   17.5690 N.am   79  ASN79      -0.0877
     25  N        -33.7920   -5.3850   18.0400 N.am   80  THR80      -0.1937
     26  CA       -32.6430   -5.8380   18.8190 C.3    80  THR80       0.2028
     27  C        -31.3780   -6.0390   17.9860 C.2    80  THR80       0.2642
     28  O        -30.2920   -6.2540   18.5470 O.2    80  THR80      -0.2714
     29  CB       -32.9550   -7.1600   19.5520 C.3    80  THR80       0.1808
     30  OG1      -33.3080   -8.1840   18.6210 O.3    80  THR80      -0.2208
     31  CG2      -34.1870   -7.0840   20.4460 C.3    80  THR80       0.0379
     32  N        -31.4850   -6.0100   16.6710 N.am   81  LEU81      -0.1977
     33  CA       -30.4450   -6.2500   15.6830 C.3    81  LEU81       0.1596
     34  C        -29.7920   -7.6270   15.7650 C.2    81  LEU81       0.2287
     35  O        -28.6510   -7.8530   15.3520 O.2    81  LEU81      -0.2864
     36  CB       -29.3590   -5.1730   15.7590 C.3    81  LEU81       0.0297
     37  CG       -29.7650   -3.7440   15.4010 C.3    81  LEU81       0.0022
     38  CD1      -28.5460   -2.9910   14.8620 C.3    81  LEU81       0.0001
     39  CD2      -30.9270   -3.6890   14.4270 C.3    81  LEU81       0.0001
     40  N        -28.7540   -7.6230   26.2310 N.3   155  GLN155     -0.1245
     41  CA       -28.8210   -7.2190   24.8160 C.3   155  GLN155      0.1566
     42  C        -27.9720   -8.0630   23.8820 C.2   155  GLN155      0.2260
     43  O        -28.1560   -8.0270   22.6540 O.2   155  GLN155     -0.2867
     44  CB       -28.3720   -5.7650   24.6620 C.3   155  GLN155      0.0367
     45  CG       -29.3650   -4.7230   25.1670 C.3   155  GLN155      0.0905
     46  CD       -28.9610   -3.3170   24.7790 C.2   155  GLN155      0.2608
     47  OE1      -28.2000   -2.6530   25.4840 O.2   155  GLN155     -0.2717
     48  NE2      -29.4700   -2.8630   23.6390 N.am  155  GLN155     -0.0878
     49  N        -12.6100    2.4730   17.9330 N.3   171  ASP171     -0.1225
     50  CA       -13.8600    1.7420   17.7020 C.3   171  ASP171      0.1805
     51  C        -14.3760    1.9710   16.2930 C.2   171  ASP171      0.2598
     52  O        -13.8590    2.8220   15.5680 O.2   171  ASP171     -0.2718
     53  CB       -14.9050    2.2070   18.7090 C.3   171  ASP171      0.1424
     54  CG       -16.1640    1.3820   18.8070 C.2   171  ASP171      0.3668
     55  OD1      -17.0910    1.8340   19.5310 O.co2 171  ASP171     -0.2456
     56  OD2      -16.2810    0.2990   18.1870 O.co2 171  ASP171     -0.2456
     57  N        -15.4120    1.2300   15.9110 N.am  172  SER172     -0.1938
     58  CA       -16.0690    1.5630   14.6430 C.3   172  SER172      0.2055
     59  C        -17.1850    2.5430   14.9930 C.2   172  SER172      0.2643
     60  O        -17.4200    2.7860   16.1800 O.2   172  SER172     -0.2714
     61  CB       -16.5720    0.3340   13.9230 C.3   172  SER172      0.2130
     62  OG       -17.4530   -0.4610   14.6990 O.3   172  SER172     -0.2179
     63  N        -17.8470    3.1090   13.9970 N.am  173  CYS173     -0.1953
     64  CA       -18.8570    4.1290   14.2490 C.3   173  CYS173      0.1843
     65  C        -19.8750    4.2140   13.1220 C.2   173  CYS173      0.2625
     66  O        -19.8150    3.4330   12.1740 O.2   173  CYS173     -0.2714
     67  CB       -18.1440    5.4740   14.4290 C.3   173  CYS173      0.0997
     68  SG       -19.1340    6.7000   15.2900 S.3   173  CYS173     -0.0797
     69  N        -20.8100    5.1580   13.1960 N.am  174  GLN174     -0.1977
     70  CA       -21.8180    5.3250   12.1590 C.3   174  GLN174      0.1601
     71  C        -21.1490    5.4640   10.7900 C.2   174  GLN174      0.2287
     72  O        -20.1590    6.1870   10.6810 O.2   174  GLN174     -0.2864
     73  CB       -22.7090    6.5440   12.3990 C.3   174  GLN174      0.0394
     74  CG       -24.0240    6.2640   13.1110 C.3   174  GLN174      0.0908
     75  CD       -23.8640    5.9210   14.5780 C.2   174  GLN174      0.2608
     76  OE1      -22.9350    6.3890   15.2450 O.2   174  GLN174     -0.2717
     77  NE2      -24.7680    5.1000   15.1070 N.am  174  GLN174     -0.0878
     78  N        -21.2590    0.8440    9.3780 N.3   177  SER177     -0.1217
     79  CA       -22.3090   -0.1600    9.3330 C.3   177  SER177      0.1889
     80  C        -22.1810   -1.0890    8.1260 C.2   177  SER177      0.2288
     81  O        -22.0170   -0.6720    6.9830 O.2   177  SER177     -0.2866
     82  CB       -23.7130    0.4480    9.2910 C.3   177  SER177      0.2089
     83  OG       -24.1000    1.0050   10.5210 O.3   177  SER177     -0.2183
     84  N        -19.9700   -4.9780   11.0670 N.3   191  VAL191     -0.1231
     85  CA       -20.2480   -3.8050   11.9000 C.3   191  VAL191      0.1692
     86  C        -21.7390   -3.6630   12.1650 C.2   191  VAL191      0.2593
     87  O        -22.5290   -3.4140   11.2560 O.2   191  VAL191     -0.2718
     88  CB       -19.6940   -2.5220   11.2600 C.3   191  VAL191      0.0266
     89  CG1      -19.9780   -1.3100   12.1420 C.3   191  VAL191      0.0020
     90  CG2      -18.1930   -2.6280   11.0270 C.3   191  VAL191      0.0020
     91  N        -22.1820   -3.8160   13.4140 N.am  192  SER192     -0.1938
     92  CA       -23.6310   -3.8370   13.6650 C.3   192  SER192      0.2055
     93  C        -24.0510   -2.6600   14.5350 C.2   192  SER192      0.2643
     94  O        -24.7230   -1.7600   14.0230 O.2   192  SER192     -0.2714
     95  CB       -24.0410   -5.1630   14.2890 C.3   192  SER192      0.2130
     96  OG       -25.4270   -5.3050   14.5330 O.3   192  SER192     -0.2179
     97  N        -23.6540   -2.6580   15.8120 N.am  193  TRP193     -0.1959
     98  CA       -24.1230   -1.5990   16.7070 C.3   193  TRP193      0.1771
     99  C        -23.1590   -1.3110   17.8510 C.2   193  TRP193      0.2620
    100  O        -22.0370   -1.8110   17.8860 O.2   193  TRP193     -0.2715
    101  CB       -25.5120   -1.9710   17.2130 C.3   193  TRP193      0.0590
    102  CG       -25.7330   -3.1880   18.0400 C.ar  193  TRP193      0.0006
    103  CD1      -25.9850   -4.4530   17.5810 C.ar  193  TRP193      0.0946
    104  CD2      -25.7390   -3.2860   19.4780 C.ar  193  TRP193      0.0152
    105  NE1      -26.1430   -5.3250   18.6350 N.ar  193  TRP193     -0.2442
    106  CE2      -25.9950   -4.6290   19.8090 C.ar  193  TRP193      0.0810
    107  CE3      -25.5470   -2.3600   20.5050 C.ar  193  TRP193      0.0012
    108  CZ2      -26.0700   -5.0780   21.1270 C.ar  193  TRP193      0.0191
    109  CZ3      -25.6180   -2.7990   21.8200 C.ar  193  TRP193      0.0001
    110  CH2      -25.8720   -4.1410   22.1110 C.ar  193  TRP193      0.0015
    111  N        -23.5670   -0.4780   18.7960 N.am  194  GLY194     -0.1940
    112  CA       -22.8230   -0.0990   19.9780 C.3   194  GLY194      0.2014
    113  C        -23.3990    1.1630   20.5940 C.2   194  GLY194      0.2640
    114  O        -24.2480    1.8280   19.9870 O.2   194  GLY194     -0.2714
    115  N        -22.9810    1.5450   21.8060 N.am  195  SER195     -0.1935
    116  CA       -23.4920    2.7980   22.3700 C.3   195  SER195      0.2055
    117  C        -22.4400    3.8690   22.1180 C.2   195  SER195      0.2644
    118  O        -21.3010    3.7380   22.5570 O.2   195  SER195     -0.2714
    119  CB       -23.8490    2.6610   23.8430 C.3   195  SER195      0.2130
    120  OG       -23.3260    1.5040   24.4530 O.3   195  SER195     -0.2179
    121  N        -22.8230    4.9120   21.3950 N.am  196  GLY196     -0.1939
    122  CA       -21.8850    5.9290   20.9500 C.3   196  GLY196      0.2014
    123  C        -20.7870    5.3480   20.0760 C.2   196  GLY196      0.2639
    124  O        -20.9970    4.3690   19.3540 O.2   196  GLY196     -0.2714
    125  N        -19.5890    5.9250   20.0870 N.am  197  CYS197     -0.1967
    126  CA       -18.3980    5.3820   19.4480 C.3   197  CYS197      0.1712
    127  C        -17.1470    5.6770   20.2820 C.2   197  CYS197      0.2296
    128  O        -16.9410    6.8000   20.7480 O.2   197  CYS197     -0.2864
    129  CB       -18.2050    5.9350   18.0380 C.3   197  CYS197      0.0983
    130  SG       -19.6950    5.7820   17.0090 S.3   197  CYS197     -0.0798
    131  N        -17.8740    0.6320   26.4690 N.3   202  LYS202     -0.1245
    132  CA       -18.9290    0.5430   25.4700 C.3   202  LYS202      0.1561
    133  C        -18.3600    0.0250   24.1510 C.2   202  LYS202      0.2260
    134  O        -18.3300    0.7710   23.1770 O.2   202  LYS202     -0.2867
    135  CB       -19.5810    1.9100   25.2680 C.3   202  LYS202      0.0271
    136  CG       -20.1230    2.5490   26.5370 C.3   202  LYS202      0.0035
    137  CD       -21.3500    3.4000   26.2570 C.3   202  LYS202      0.0206
    138  CE       -21.1670    4.8500   26.6810 C.3   202  LYS202      0.1093
    139  NZ       -22.3390    5.6950   26.3120 N.3   202  LYS202     -0.1314
    140  N        -17.5970   -2.0480   20.5590 N.3   204  GLY204     -0.1210
    141  CA       -18.3930   -2.3070   19.3760 C.3   204  GLY204      0.1956
    142  C        -18.9420   -3.7160   19.3260 C.2   204  GLY204      0.2612
    143  O        -18.2960   -4.6990   19.6780 O.2   204  GLY204     -0.2717
    144  N        -20.1850   -3.8180   18.8570 N.am  205  VAL205     -0.1965
    145  CA       -20.8610   -5.1040   18.7330 C.3   205  VAL205      0.1727
    146  C        -20.9430   -5.5010   17.2610 C.2   205  VAL205      0.2616
    147  O        -21.2850   -4.6870   16.3990 O.2   205  VAL205     -0.2715
    148  CB       -22.2580   -5.0830   19.3750 C.3   205  VAL205      0.0290
    149  CG1      -22.8580   -6.4820   19.4830 C.3   205  VAL205      0.0023
    150  CG2      -22.2100   -4.4520   20.7630 C.3   205  VAL205      0.0023
    151  N        -20.6130   -6.7640   17.0080 N.am  206  TYR206     -0.1974
    152  CA       -20.4890   -7.2750   15.6510 C.3   206  TYR206      0.1639
    153  C        -21.3330   -8.5080   15.4150 C.2   206  TYR206      0.2290
    154  O        -21.4820   -9.4000   16.2430 O.2   206  TYR206     -0.2864
    155  CB       -18.9820   -7.5160   15.4050 C.3   206  TYR206      0.0560
    156  CG       -18.2250   -6.2100   15.5340 C.ar  206  TYR206     -0.0198
    157  CD1      -18.1400   -5.3380   14.4580 C.ar  206  TYR206     -0.0009
    158  CD2      -17.6180   -5.8580   16.7340 C.ar  206  TYR206     -0.0009
    159  CE1      -17.4590   -4.1370   14.5470 C.ar  206  TYR206      0.0417
    160  CE2      -16.9340   -4.6630   16.8370 C.ar  206  TYR206      0.0417
    161  CZ       -16.8570   -3.8220   15.7530 C.ar  206  TYR206      0.1957
    162  OH       -16.1810   -2.6410   15.8880 O.3   206  TYR206     -0.2866
@<TRIPOS>BOND
     1    81    80    2
     2     4     3    2
     3     3     2    1
     4    80    79    1
     5     1     2    1
     6     2     5    1
     7    82    79    1
     8    82    83    1
     9    79    78    1
    10     8     6   ar
    11     8    10   ar
    12     5     6    1
    13     6     7   ar
    14    10     9   ar
    15    72    71    2
    16    71    70    1
    17    90    88    1
    18    84    85    1
    19     9     7   ar
    20    87    86    2
    21    88    85    1
    22    88    89    1
    23    85    86    1
    24    70    73    1
    25    70    69    1
    26    86    91   am
    27    66    65    2
    28    73    74    1
    29    15    16    1
    30    15    12    1
    31    74    75    1
    32    65    69   am
    33    65    64    1
    34    91    92    1
    35    92    95    1
    36    92    93    1
    37    12    11    1
    38    12    13    1
    39    61    58    1
    40    61    62    1
    41    63    64    1
    42    63    59   am
    43    94    93    2
    44    64    67    1
    45    95    96    1
    46    39    37    1
    47    67    68    1
    48   157   159   ar
    49   157   156   ar
    50    93    97   am
    51   159   161   ar
    52    75    77   am
    53    75    76    2
    54    58    59    1
    55    58    57    1
    56    38    37    1
    57    59    60    2
    58    13    14    2
    59    13    17   am
    60    68   130    1
    61    35    34    2
    62    37    36    1
    63   155   156    1
    64   155   152    1
    65   153   152    1
    66   153   154    2
    67   156   158   ar
    68    52    51    2
    69   152   151    1
    70    33    36    1
    71    33    34    1
    72    33    32    1
    73   161   162    1
    74   161   160   ar
    75    97    98    1
    76    57    51   am
    77    17    18    1
    78    51    50    1
    79   147   146    2
    80    32    27   am
    81    98   101    1
    82    98    99    1
    83   158   160   ar
    84   151   146   am
    85   130   129    1
    86   101   102    1
    87   146   145    1
    88    23    22    2
    89    18    21    1
    90    18    19    1
    91    24    22   am
    92   103   102   ar
    93   103   105   ar
    94    22    21    1
    95    50    49    1
    96    50    53    1
    97    99   100    2
    98    99   111   am
    99    27    28    2
   100    27    26    1
   101   129   126    1
   102    25    19   am
   103    25    26    1
   104   102   104   ar
   105    56    54   ar
   106    19    20    2
   107    30    29    1
   108   105   106   ar
   109    53    54    1
   110   145   144    1
   111   145   148    1
   112   111   112    1
   113    54    55   ar
   114    26    29    1
   115   144   142   am
   116   142   141    1
   117   142   143    2
   118   124   123    2
   119   148   149    1
   120   148   150    1
   121   141   140    1
   122   126   125    1
   123   126   127    1
   124   104   106   ar
   125   104   107   ar
   126    29    31    1
   127   106   108   ar
   128   112   113    1
   129   114   113    2
   130   123   125   am
   131   123   122    1
   132   127   128    2
   133   107   109   ar
   134   113   115   am
   135   122   121    1
   136   108   110   ar
   137   121   117   am
   138   115   116    1
   139   109   110   ar
   140   117   116    1
   141   117   118    2
   142   116   119    1
   143    43    42    2
   144   134   133    2
   145    48    46   am
   146   119   120    1
   147    42    41    1
   148   133   132    1
   149    44    41    1
   150    44    45    1
   151    46    45    1
   152    46    47    2
   153    41    40    1
   154   135   132    1
   155   135   136    1
   156   132   131    1
   157   137   136    1
   158   137   138    1
   159   139   138    1
