@<TRIPOS>MOLECULE
tmp/2zdoD00.pdb
 230 220 0 0 0
SMALL
GASTEIGER

@<TRIPOS>ATOM
      1  N         42.1150   38.1270   22.4340 N.3     7  ALA7       -0.1245
      2  CA        42.1240   39.1220   23.5030 C.3     7  ALA7        0.1562
      3  C         40.7430   39.1850   24.1360 C.2     7  ALA7        0.2260
      4  O         39.7330   39.2150   23.4330 O.2     7  ALA7       -0.2867
      5  CB        42.5170   40.4810   22.9590 C.3     7  ALA7        0.0290
      6  N         38.2820   41.2070   27.0270 N.3     9  ALA9       -0.1245
      7  CA        38.0070   42.2590   28.0010 C.3     9  ALA9        0.1562
      8  C         37.0090   41.6720   28.9840 C.2     9  ALA9        0.2260
      9  O         35.9190   41.2570   28.6000 O.2     9  ALA9       -0.2867
     10  CB        37.4360   43.4980   27.3210 C.3     9  ALA9        0.0290
     11  N         34.5920   42.3060   31.9610 N.3    11  LEU11      -0.1245
     12  CA        33.8750   43.4560   32.5210 C.3    11  LEU11       0.1561
     13  C         33.0640   43.0470   33.7260 C.2    11  LEU11       0.2260
     14  O         32.2480   42.1370   33.6450 O.2    11  LEU11      -0.2867
     15  CB        32.9380   44.0570   31.4720 C.3    11  LEU11       0.0270
     16  CG        33.4180   45.2250   30.5990 C.3    11  LEU11       0.0019
     17  CD1       34.9140   45.2370   30.2610 C.3    11  LEU11       0.0001
     18  CD2       32.5100   45.4490   29.3620 C.3    11  LEU11       0.0001
     19  N         24.1560   46.3630   28.1540 N.3    21  ILE21      -0.1245
     20  CA        25.4790   46.5040   27.5440 C.3    21  ILE21       0.1561
     21  C         25.6880   45.5510   26.3470 C.2    21  ILE21       0.2260
     22  O         26.2360   45.9590   25.3230 O.2    21  ILE21      -0.2867
     23  CB        26.6070   46.4510   28.6140 C.3    21  ILE21       0.0252
     24  CG1       26.9690   47.8880   29.0320 C.3    21  ILE21       0.0019
     25  CG2       27.8440   45.6840   28.1310 C.3    21  ILE21       0.0019
     26  CD1       27.8880   47.9870   30.2220 C.3    21  ILE21       0.0001
     27  N         24.4530   46.5530   22.7390 N.3    24  ARG24      -0.1231
     28  CA        25.2250   47.5550   22.0160 C.3    24  ARG24       0.1694
     29  C         26.1660   46.9280   20.9620 C.2    24  ARG24       0.2592
     30  O         26.5980   47.6020   20.0210 O.2    24  ARG24      -0.2718
     31  CB        26.0480   48.3830   23.0010 C.3    24  ARG24       0.0321
     32  CG        25.2120   49.2650   23.9220 C.3    24  ARG24       0.0489
     33  CD        25.9680   49.5160   25.2040 C.3    24  ARG24       0.2205
     34  NE        25.2910   50.4310   26.1210 N.pl3  24  ARG24      -0.0865
     35  CZ        25.7560   51.6310   26.4660 C.cat  24  ARG24       0.5346
     36  NH1       25.0660   52.3800   27.3190 N.pl3  24  ARG24       0.1354
     37  NH2       26.9030   52.0890   25.9620 N.pl3  24  ARG24       0.1354
     38  N         26.4830   45.6440   21.1340 N.am   25  PHE25      -0.1976
     39  CA        27.4910   44.9870   20.2810 C.3    25  PHE25       0.1639
     40  C         26.9640   44.5860   18.9110 C.2    25  PHE25       0.2290
     41  O         27.7270   44.1600   18.0370 O.2    25  PHE25      -0.2864
     42  CB        28.1370   43.8010   21.0250 C.3    25  PHE25       0.0560
     43  CG        28.9830   44.2230   22.1880 C.ar   25  PHE25      -0.0200
     44  CD1       30.3390   44.4770   22.0220 C.ar   25  PHE25      -0.0042
     45  CD2       28.4230   44.3960   23.4510 C.ar   25  PHE25      -0.0042
     46  CE1       31.1230   44.8840   23.0950 C.ar   25  PHE25      -0.0003
     47  CE2       29.2070   44.8040   24.5400 C.ar   25  PHE25      -0.0003
     48  CZ        30.5530   45.0500   24.3550 C.ar   25  PHE25      -0.0000
     49  N         25.9650   46.7070   16.8410 N.3    27  THR27      -0.1203
     50  CA        26.3850   47.7980   15.9700 C.3    27  THR27       0.1994
     51  C         27.8850   47.8090   15.8040 C.2    27  THR27       0.2618
     52  O         28.6180   47.9700   16.7880 O.2    27  THR27      -0.2717
     53  CB        25.9420   49.1740   16.5240 C.3    27  THR27       0.1784
     54  OG1       24.5130   49.2030   16.6050 O.3    27  THR27      -0.2211
     55  CG2       26.3690   50.2700   15.5980 C.3    27  THR27       0.0376
     56  N         28.3370   47.6670   14.5550 N.am   28  ARG28      -0.1965
     57  CA        29.7580   47.7060   14.2550 C.3    28  ARG28       0.1729
     58  C         30.2930   49.1220   14.2600 C.2    28  ARG28       0.2616
     59  O         29.5820   50.0770   13.8970 O.2    28  ARG28      -0.2715
     60  CB        30.0780   47.0430   12.8960 C.3    28  ARG28       0.0348
     61  CG        29.7940   45.5190   12.8150 C.3    28  ARG28       0.0492
     62  CD        30.8940   44.6440   13.4990 C.3    28  ARG28       0.2205
     63  NE        30.9150   44.8820   14.9320 N.pl3  28  ARG28      -0.0865
     64  CZ        30.0570   44.3360   15.7850 C.cat  28  ARG28       0.5346
     65  NH1       30.1160   44.6460   17.0630 N.pl3  28  ARG28       0.1354
     66  NH2       29.1570   43.4730   15.3520 N.pl3  28  ARG28       0.1354
     67  N         31.5640   49.2490   14.6290 N.am   29  HIS29      -0.1973
     68  CA        32.2780   50.5260   14.5560 C.3    29  HIS29       0.1656
     69  C         33.5770   50.4770   13.7480 C.2    29  HIS29       0.2291
     70  O         34.4110   51.3890   13.8470 O.2    29  HIS29      -0.2864
     71  CB        32.5290   51.0650   15.9700 C.3    29  HIS29       0.0771
     72  CG        31.2750   51.2250   16.7630 C.ar   29  HIS29       0.0820
     73  ND1       30.4090   52.2810   16.5740 N.ar   29  HIS29      -0.2267
     74  CD2       30.7210   50.4460   17.7180 C.ar   29  HIS29       0.1154
     75  CE1       29.3740   52.1450   17.3830 C.ar   29  HIS29       0.1986
     76  NE2       29.5430   51.0430   18.0940 N.ar   29  HIS29      -0.2212
     77  N         35.7110   47.4940   13.3650 N.3    31  ILE31      -0.1245
     78  CA        36.6200   46.3770   13.6660 C.3    31  ILE31       0.1561
     79  C         36.6150   45.3620   12.5080 C.2    31  ILE31       0.2260
     80  O         37.6430   44.7660   12.1950 O.2    31  ILE31      -0.2867
     81  CB        36.3310   45.6980   15.0550 C.3    31  ILE31       0.0252
     82  CG1       37.5050   44.8120   15.4920 C.3    31  ILE31       0.0019
     83  CG2       35.0410   44.8770   15.0470 C.3    31  ILE31       0.0019
     84  CD1       37.3860   44.3270   16.9300 C.3    31  ILE31       0.0001
     85  N         34.3450   37.7030   17.0190 N.3    40  MET40      -0.1245
     86  CA        34.1110   38.1230   18.3940 C.3    40  MET40       0.1570
     87  C         32.9180   37.3770   19.0070 C.2    40  MET40       0.2261
     88  O         31.9550   36.9960   18.3050 O.2    40  MET40      -0.2867
     89  CB        33.8820   39.6420   18.4560 C.3    40  MET40       0.0387
     90  CG        32.7070   40.1260   17.6000 C.3    40  MET40       0.0595
     91  SD        32.4520   41.9200   17.5810 S.3    40  MET40      -0.1393
     92  CE        31.8870   42.2700   19.2390 C.3    40  MET40       0.0692
     93  N         34.1450   40.1710   26.5600 N.3    56  ILE56      -0.1245
     94  CA        34.2090   40.3680   25.1190 C.3    56  ILE56       0.1561
     95  C         35.4280   39.6100   24.6310 C.2    56  ILE56       0.2260
     96  O         36.5640   39.9700   24.9580 O.2    56  ILE56      -0.2867
     97  CB        34.3240   41.8560   24.7460 C.3    56  ILE56       0.0252
     98  CG1       33.2550   42.6820   25.4790 C.3    56  ILE56       0.0019
     99  CG2       34.2060   42.0290   23.2020 C.3    56  ILE56       0.0019
    100  CD1       33.6440   44.1490   25.6370 C.3    56  ILE56       0.0001
    101  N         37.7990   38.4680   21.5130 N.3    58  THR58      -0.1218
    102  CA        38.1140   38.8150   20.1230 C.3    58  THR58       0.1862
    103  C         39.2200   37.9090   19.5970 C.2    58  THR58       0.2287
    104  O         40.1700   37.6070   20.3160 O.2    58  THR58      -0.2866
    105  CB        38.4910   40.2880   19.9410 C.3    58  THR58       0.1770
    106  OG1       39.6350   40.6020   20.7500 O.3    58  THR58      -0.2211
    107  CG2       37.3050   41.2260   20.3160 C.3    58  THR58       0.0375
    108  N         45.7880   42.8130   16.8090 N.3    66  PHE66      -0.1241
    109  CA        45.0810   43.3230   17.9900 C.3    66  PHE66       0.1605
    110  C         45.6560   44.5800   18.6450 C.2    66  PHE66       0.2264
    111  O         44.9140   45.5220   18.9330 O.2    66  PHE66      -0.2867
    112  CB        44.9700   42.2490   19.0840 C.3    66  PHE66       0.0534
    113  CG        44.5180   42.7960   20.4150 C.ar   66  PHE66      -0.0203
    114  CD1       43.2080   43.2250   20.5990 C.ar   66  PHE66      -0.0042
    115  CD2       45.4100   42.8900   21.4860 C.ar   66  PHE66      -0.0042
    116  CE1       42.7880   43.7430   21.8150 C.ar   66  PHE66      -0.0003
    117  CE2       44.9960   43.3880   22.7190 C.ar   66  PHE66      -0.0003
    118  CZ        43.6780   43.8090   22.8890 C.ar   66  PHE66      -0.0000
    119  N         44.8610   47.6240   16.6750 N.3    69  TRP69      -0.1227
    120  CA        43.4440   47.9830   16.8480 C.3    69  TRP69       0.1737
    121  C         43.2470   48.7600   18.1360 C.2    69  TRP69       0.2595
    122  O         42.5740   49.7950   18.1260 O.2    69  TRP69      -0.2718
    123  CB        42.5160   46.7540   16.7890 C.3    69  TRP69       0.0564
    124  CG        41.0880   47.0700   17.1120 C.ar   69  TRP69       0.0003
    125  CD1       40.1810   47.7390   16.3200 C.ar   69  TRP69       0.0946
    126  CD2       40.4010   46.7550   18.3290 C.ar   69  TRP69       0.0152
    127  NE1       38.9730   47.8540   16.9780 N.ar   69  TRP69      -0.2442
    128  CE2       39.0810   47.2690   18.2130 C.ar   69  TRP69       0.0810
    129  CE3       40.7740   46.1030   19.5180 C.ar   69  TRP69       0.0012
    130  CZ2       38.1290   47.1290   19.2300 C.ar   69  TRP69       0.0191
    131  CZ3       39.8200   45.9700   20.5340 C.ar   69  TRP69       0.0001
    132  CH2       38.5130   46.4740   20.3720 C.ar   69  TRP69       0.0015
    133  N         43.8450   48.2880   19.2360 N.am   70  LEU70      -0.1980
    134  CA        43.7700   48.9840   20.5230 C.3    70  LEU70       0.1596
    135  C         44.0150   50.4880   20.4370 C.2    70  LEU70       0.2287
    136  O         43.3960   51.2650   21.1530 O.2    70  LEU70      -0.2864
    137  CB        44.7760   48.3990   21.5280 C.3    70  LEU70       0.0297
    138  CG        44.3020   47.3310   22.5060 C.3    70  LEU70       0.0022
    139  CD1       45.4320   47.0530   23.5090 C.3    70  LEU70       0.0001
    140  CD2       43.0140   47.7130   23.2240 C.3    70  LEU70       0.0001
    141  N         39.4770   53.4060   15.0270 N.3    74  VAL74      -0.1231
    142  CA        38.3940   52.4340   14.9880 C.3    74  VAL74       0.1692
    143  C         38.0180   52.0180   16.4260 C.2    74  VAL74       0.2592
    144  O         36.8410   52.0000   16.8110 O.2    74  VAL74      -0.2718
    145  CB        38.8050   51.2360   14.0400 C.3    74  VAL74       0.0266
    146  CG1       37.9840   50.0040   14.2840 C.3    74  VAL74       0.0020
    147  CG2       38.6860   51.6760   12.5660 C.3    74  VAL74       0.0020
    148  N         39.0290   51.7320   17.2320 N.am   75  PHE75      -0.1976
    149  CA        38.8150   51.4480   18.6450 C.3    75  PHE75       0.1639
    150  C         38.1420   52.6350   19.3540 C.2    75  PHE75       0.2290
    151  O         37.2250   52.4420   20.1450 O.2    75  PHE75      -0.2864
    152  CB        40.1410   51.1430   19.3160 C.3    75  PHE75       0.0560
    153  CG        40.0240   50.7900   20.7700 C.ar   75  PHE75      -0.0200
    154  CD1       39.8640   49.4630   21.1610 C.ar   75  PHE75      -0.0042
    155  CD2       40.0930   51.7750   21.7470 C.ar   75  PHE75      -0.0042
    156  CE1       39.7590   49.1270   22.5040 C.ar   75  PHE75      -0.0003
    157  CE2       39.9830   51.4540   23.0930 C.ar   75  PHE75      -0.0003
    158  CZ        39.8180   50.1130   23.4680 C.ar   75  PHE75      -0.0000
    159  N         34.4270   53.0070   18.7580 N.3    78  ALA78      -0.1231
    160  CA        33.6440   52.0520   19.5290 C.3    78  ALA78       0.1694
    161  C         33.4760   52.5130   20.9800 C.2    78  ALA78       0.2592
    162  O         32.4060   52.3330   21.5670 O.2    78  ALA78      -0.2718
    163  CB        34.2890   50.6830   19.4850 C.3    78  ALA78       0.0304
    164  N         34.5360   53.0970   21.5390 N.am   79  HIS79      -0.1976
    165  CA        34.6250   53.3370   22.9870 C.3    79  HIS79       0.1656
    166  C         34.4340   54.8090   23.3250 C.2    79  HIS79       0.2291
    167  O         34.7140   55.2340   24.4440 O.2    79  HIS79      -0.2864
    168  CB        35.9420   52.7750   23.5390 C.3    79  HIS79       0.0771
    169  CG        36.0540   51.2850   23.3910 C.ar   79  HIS79       0.0820
    170  ND1       36.6090   50.6860   22.2840 N.ar   79  HIS79      -0.2267
    171  CD2       35.6010   50.2770   24.1750 C.ar   79  HIS79       0.1154
    172  CE1       36.5320   49.3720   22.4090 C.ar   79  HIS79       0.1986
    173  NE2       35.9310   49.0970   23.5530 N.ar   79  HIS79      -0.2212
    174  N         31.7480   56.8280   23.7480 N.3    81  HIS81      -0.1226
    175  CA        30.7970   57.1850   24.8040 C.3    81  HIS81       0.1752
    176  C         30.7990   56.2360   26.0020 C.2    81  HIS81       0.2596
    177  O         29.9300   56.3420   26.8720 O.2    81  HIS81      -0.2718
    178  CB        29.3780   57.3300   24.2320 C.3    81  HIS81       0.0759
    179  CG        29.2680   58.3520   23.1400 C.ar   81  HIS81       0.0818
    180  ND1       28.9050   58.0270   21.8490 N.ar   81  HIS81      -0.2268
    181  CD2       29.4900   59.6890   23.1420 C.ar   81  HIS81       0.1154
    182  CE1       28.9040   59.1200   21.1050 C.ar   81  HIS81       0.1986
    183  NE2       29.2560   60.1410   21.8640 N.ar   81  HIS81      -0.2212
    184  N         31.7710   55.3230   26.0660 N.am   82  VAL82      -0.1966
    185  CA        31.8300   54.3930   27.1980 C.3    82  VAL82       0.1727
    186  C         32.6780   54.9470   28.3410 C.2    82  VAL82       0.2616
    187  O         33.8040   55.4130   28.1380 O.2    82  VAL82      -0.2715
    188  CB        32.2370   52.9090   26.8130 C.3    82  VAL82       0.0290
    189  CG1       31.8020   52.5530   25.3900 C.3    82  VAL82       0.0023
    190  CG2       33.7250   52.6360   27.0220 C.3    82  VAL82       0.0023
    191  N         32.1010   54.9130   29.5380 N.am   83  ARG83      -0.1963
    192  CA        32.7690   55.3810   30.7410 C.3    83  ARG83       0.1729
    193  C         32.7170   54.3300   31.8450 C.2    83  ARG83       0.2616
    194  O         31.7880   53.5270   31.9010 O.2    83  ARG83      -0.2715
    195  CB        32.1310   56.6830   31.2400 C.3    83  ARG83       0.0348
    196  CG        32.7650   57.9500   30.6800 C.3    83  ARG83       0.0492
    197  CD        32.0240   58.4670   29.4660 C.3    83  ARG83       0.2205
    198  NE        32.7020   59.6230   28.8770 N.pl3  83  ARG83      -0.0865
    199  CZ        33.7140   59.5490   28.0120 C.cat  83  ARG83       0.5346
    200  NH1       34.1860   58.3710   27.6220 N.pl3  83  ARG83       0.1354
    201  NH2       34.2590   60.6620   27.5390 N.pl3  83  ARG83       0.1354
    202  N         33.7350   54.3350   32.7000 N.am   84  SER84      -0.1950
    203  CA        33.7280   53.5430   33.9260 C.3    84  SER84       0.1924
    204  C         33.0740   54.3910   35.0170 C.2    84  SER84       0.2314
    205  O         32.8650   55.5940   34.8330 O.2    84  SER84      -0.2863
    206  CB        35.1510   53.1390   34.3330 C.3    84  SER84       0.2116
    207  OG        35.8990   54.2570   34.8070 O.3    84  SER84      -0.2180
    208  N         29.7480   50.0840   34.8860 N.3    93  ILE93      -0.1245
    209  CA        31.0170   49.3660   34.7800 C.3    93  ILE93       0.1561
    210  C         31.8800   49.5240   36.0420 C.2    93  ILE93       0.2260
    211  O         32.3990   50.5930   36.3410 O.2    93  ILE93      -0.2867
    212  CB        31.7610   49.6920   33.4510 C.3    93  ILE93       0.0252
    213  CG1       30.8860   49.2560   32.2650 C.3    93  ILE93       0.0019
    214  CG2       33.1150   48.9680   33.3960 C.3    93  ILE93       0.0019
    215  CD1       31.1690   49.9350   30.9500 C.3    93  ILE93       0.0001
    216  N         37.4020   46.4350   35.0110 N.3    96  ASN96      -0.1240
    217  CA        37.7710   45.7670   33.7620 C.3    96  ASN96       0.1653
    218  C         39.1740   45.1860   33.8340 C.2    96  ASN96       0.2266
    219  O         40.0690   45.7570   34.4790 O.2    96  ASN96      -0.2867
    220  CB        37.6550   46.7160   32.5600 C.3    96  ASN96       0.1155
    221  CG        38.6720   47.8330   32.5980 C.2    96  ASN96       0.2627
    222  OD1       38.4920   48.8390   33.2960 O.2    96  ASN96      -0.2716
    223  ND2       39.7550   47.6650   31.8500 N.am   96  ASN96      -0.0877
    224  N         42.0390   43.0460   31.0840 N.3    98  VAL98      -0.1245
    225  CA        42.3200   42.5610   29.7300 C.3    98  VAL98       0.1561
    226  C         43.2480   41.3580   29.8560 C.2    98  VAL98       0.2260
    227  O         44.2770   41.4370   30.5490 O.2    98  VAL98      -0.2867
    228  CB        42.9270   43.6890   28.8230 C.3    98  VAL98       0.0252
    229  CG1       43.3640   43.1540   27.4540 C.3    98  VAL98       0.0019
    230  CG2       41.9290   44.8340   28.6440 C.3    98  VAL98       0.0019
@<TRIPOS>BOND
     1    80    79    2
     2    79    78    1
     3   147   145    1
     4    61    60    1
     5    61    62    1
     6    60    57    1
     7    77    78    1
     8    62    63    1
     9    78    81    1
    10    69    70    2
    11    69    68    1
    12    59    58    2
    13   145   146    1
    14   145   142    1
    15    57    58    1
    16    57    56    1
    17    58    67   am
    18    56    51   am
    19    68    67    1
    20    68    71    1
    21    63    64    2
    22   142   141    1
    23   142   143    1
    24    83    81    1
    25    81    82    1
    26    66    64    1
    27    82    84    1
    28    55    53    1
    29    64    65    1
    30    51    50    1
    31    51    52    2
    32    71    72    1
    33    50    53    1
    34    50    49    1
    35   125   127   ar
    36   125   124   ar
    37   143   144    2
    38   143   148   am
    39    53    54    1
    40    73    72   ar
    41    73    75   ar
    42   119   120    1
    43    72    74   ar
    44   123   120    1
    45   123   124    1
    46   108   109    1
    47   120   121    1
    48   127   128   ar
    49    85    86    1
    50   124   126   ar
    51   148   149    1
    52    75    76   ar
    53    91    90    1
    54    91    92    1
    55    90    89    1
    56    74    76   ar
    57   109   110    1
    58   109   112    1
    59    41    40    2
    60   122   121    2
    61   121   133   am
    62   128   126   ar
    63   128   130   ar
    64    88    87    2
    65   126   129   ar
    66    86    89    1
    67    86    87    1
    68   149   152    1
    69   149   150    1
    70   110   111    2
    71   159   160    1
    72    40    39    1
    73   112   113    1
    74   130   132   ar
    75   133   134    1
    76   152   153    1
    77   150   151    2
    78   163   160    1
    79   129   131   ar
    80   160   161    1
    81   103   102    1
    82   103   104    2
    83   105   102    1
    84   105   107    1
    85   105   106    1
    86    30    29    2
    87   102   101    1
    88    39    42    1
    89    39    38    1
    90   132   131   ar
    91   113   114   ar
    92   113   115   ar
    93   135   134    1
    94   135   136    2
    95   134   137    1
    96   114   116   ar
    97   153   154   ar
    98   153   155   ar
    99    29    38   am
   100    29    28    1
   101   161   164   am
   102   161   162    2
   103    42    43    1
   104   182   180   ar
   105   182   183   ar
   106   154   156   ar
   107   115   117   ar
   108   137   138    1
   109   164   165    1
   110   155   157   ar
   111   116   118   ar
   112   180   179   ar
   113   183   181   ar
   114    28    27    1
   115    28    31    1
   116    44    43   ar
   117    44    46   ar
   118    43    45   ar
   119   170   172   ar
   120   170   169   ar
   121   172   173   ar
   122     1     2    1
   123   156   158   ar
   124   138   140    1
   125   138   139    1
   126   117   118   ar
   127     5     2    1
   128   165   166    1
   129   165   168    1
   130    31    32    1
   131   157   158   ar
   132    46    48   ar
   133   179   181   ar
   134   179   178    1
   135    99    97    1
   136   166   167    2
   137   169   168    1
   138   169   171   ar
   139     4     3    2
   140    45    47   ar
   141     2     3    1
   142   173   171   ar
   143   174   175    1
   144    32    33    1
   145   178   175    1
   146    48    47   ar
   147    95    96    2
   148    95    94    1
   149    97    94    1
   150    97    98    1
   151   175   176    1
   152    94    93    1
   153    33    34    1
   154    22    21    2
   155   189   188    1
   156    98   100    1
   157    37    35    1
   158   176   184   am
   159   176   177    2
   160   184   185    1
   161    34    35    2
   162    21    20    1
   163    35    36    1
   164   188   190    1
   165   188   185    1
   166     6     7    1
   167   185   186    1
   168    10     7    1
   169   229   228    1
   170   201   199    1
   171    20    19    1
   172    20    23    1
   173   200   199    1
   174     7     8    1
   175   199   198    2
   176    25    23    1
   177   187   186    2
   178   186   191   am
   179     9     8    2
   180    23    24    1
   181   230   228    1
   182   228   225    1
   183   198   197    1
   184    24    26    1
   185    18    16    1
   186   197   196    1
   187   191   192    1
   188   225   226    1
   189   225   224    1
   190   226   227    2
   191    17    16    1
   192    16    15    1
   193   196   195    1
   194   192   195    1
   195   192   193    1
   196   215   213    1
   197    15    12    1
   198   193   194    2
   199   193   202   am
   200   223   221   am
   201    11    12    1
   202   213   212    1
   203    12    13    1
   204   220   221    1
   205   220   217    1
   206   221   222    2
   207   202   203    1
   208   214   212    1
   209   212   209    1
   210    14    13    2
   211   217   218    1
   212   217   216    1
   213   218   219    2
   214   203   206    1
   215   203   204    1
   216   206   207    1
   217   209   208    1
   218   209   210    1
   219   205   204    2
   220   210   211    2
