@<TRIPOS>MOLECULE
tmp/2zdqA00.pdb
 245 232 0 0 0
SMALL
GASTEIGER

@<TRIPOS>ATOM
      1  N         37.9480   22.2560   -1.6730 N.3    13  GLU13      -0.1245
      2  CA        39.1890   22.4770   -2.4040 C.3    13  GLU13       0.1567
      3  C         39.0030   23.3000   -3.6780 C.2    13  GLU13       0.2260
      4  O         39.8650   23.2920   -4.5600 O.2    13  GLU13      -0.2867
      5  CB        39.8450   21.1430   -2.7400 C.3    13  GLU13       0.0388
      6  CG        40.3410   20.3760   -1.5380 C.3    13  GLU13       0.1160
      7  CD        40.9620   19.0580   -1.9250 C.2    13  GLU13       0.3649
      8  OE1       40.2210   18.1010   -2.2280 O.co2  13  GLU13      -0.2457
      9  OE2       42.2040   18.9670   -1.9230 O.co2  13  GLU13      -0.2457
     10  N         38.9340    7.2820    2.1210 N.3   116  LYS116     -0.1245
     11  CA        40.0110    6.8740    3.0170 C.3   116  LYS116      0.1561
     12  C         39.7870    5.5540    3.7480 C.2   116  LYS116      0.2260
     13  O         40.7420    4.9330    4.2120 O.2   116  LYS116     -0.2867
     14  CB        40.3330    7.9960    3.9900 C.3   116  LYS116      0.0271
     15  CG        41.0030    9.1530    3.2950 C.3   116  LYS116      0.0035
     16  CD        41.1360   10.3470    4.1890 C.3   116  LYS116      0.0206
     17  CE        41.7550   11.4970    3.4350 C.3   116  LYS116      0.1093
     18  NZ        43.1290   11.1880    2.9480 N.3   116  LYS116     -0.1314
     19  N         48.3760    2.1800    8.2300 N.3   131  VAL131     -0.1245
     20  CA        48.2320    2.5890    9.6290 C.3   131  VAL131      0.1561
     21  C         46.9330    1.9720   10.2260 C.2   131  VAL131      0.2260
     22  O         45.9710    1.7470    9.4770 O.2   131  VAL131     -0.2867
     23  CB        48.1380    4.1570    9.6540 C.3   131  VAL131      0.0252
     24  CG1       47.8250    4.6840   11.0140 C.3   131  VAL131      0.0019
     25  CG2       49.4380    4.7730    9.1720 C.3   131  VAL131      0.0019
     26  N         44.3180   10.7300   14.3950 N.3   151  PHE151     -0.1241
     27  CA        44.1030   11.6720   13.3180 C.3   151  PHE151      0.1605
     28  C         42.7100   11.3640   12.8130 C.2   151  PHE151      0.2264
     29  O         42.4410   10.2490   12.3720 O.2   151  PHE151     -0.2867
     30  CB        45.1550   11.5620   12.2180 C.3   151  PHE151      0.0534
     31  CG        46.2510   12.5690   12.3570 C.ar  151  PHE151     -0.0203
     32  CD1       46.1120   13.8520   11.8070 C.ar  151  PHE151     -0.0042
     33  CD2       47.4170   12.2630   13.0770 C.ar  151  PHE151     -0.0042
     34  CE1       47.1210   14.8270   11.9700 C.ar  151  PHE151     -0.0003
     35  CE2       48.4440   13.2280   13.2510 C.ar  151  PHE151     -0.0003
     36  CZ        48.2920   14.5150   12.6940 C.ar  151  PHE151     -0.0000
     37  N         39.6690   12.2680   10.3190 N.3   153  LYS153     -0.1245
     38  CA        39.4920   12.8650    8.9980 C.3   153  LYS153      0.1561
     39  C         38.1620   12.5460    8.3380 C.2   153  LYS153      0.2260
     40  O         37.5820   11.4940    8.6030 O.2   153  LYS153     -0.2867
     41  CB        40.5390   12.2930    8.0030 C.3   153  LYS153      0.0271
     42  CG        41.9360   12.0420    8.5150 C.3   153  LYS153      0.0035
     43  CD        42.7900   11.3610    7.5040 C.3   153  LYS153      0.0206
     44  CE        44.1240   11.0980    8.1220 C.3   153  LYS153      0.1093
     45  NZ        45.0450   10.3350    7.2400 N.3   153  LYS153     -0.1314
     46  N         38.0270   13.7270    2.2070 N.3   157  THR157     -0.1203
     47  CA        38.7850   14.9700    2.2010 C.3   157  THR157      0.1994
     48  C         40.0850   15.0410    1.3920 C.2   157  THR157      0.2618
     49  O         40.6030   14.0320    0.8930 O.2   157  THR157     -0.2717
     50  CB        39.0040   15.4840    3.6500 C.3   157  THR157      0.1784
     51  OG1       39.1050   16.9080    3.6540 O.3   157  THR157     -0.2211
     52  CG2       40.2560   14.8840    4.2930 C.3   157  THR157      0.0376
     53  N         40.5460   16.2820    1.2550 N.am  158  GLY158     -0.1942
     54  CA        41.7700   16.6210    0.5680 C.3   158  GLY158      0.2014
     55  C         42.1910   17.9520    1.1660 C.2   158  GLY158      0.2640
     56  O         41.3820   18.6070    1.8360 O.2   158  GLY158     -0.2714
     57  N         43.4560   18.3310    0.9640 N.am  159  SER159     -0.1935
     58  CA        44.0350   19.5980    1.4560 C.3   159  SER159      0.2055
     59  C         43.9720   19.7960    2.9680 C.2   159  SER159      0.2643
     60  O         43.9270   20.9310    3.4570 O.2   159  SER159     -0.2714
     61  CB        43.4130   20.8030    0.7430 C.3   159  SER159      0.2130
     62  OG        43.6770   20.7600   -0.6440 O.3   159  SER159     -0.2179
     63  N         43.9320   18.6730    3.6900 N.am  160  SER160     -0.1949
     64  CA        43.8600   18.6220    5.1560 C.3   160  SER160      0.1924
     65  C         42.6280   19.2550    5.8100 C.2   160  SER160      0.2314
     66  O         42.6120   19.4960    7.0180 O.2   160  SER160     -0.2863
     67  CB        45.1430   19.1740    5.7940 C.3   160  SER160      0.2116
     68  OG        46.2330   18.2980    5.6030 O.3   160  SER160     -0.2180
     69  N         40.5900   17.9380    9.2450 N.3   163  ILE163     -0.1245
     70  CA        41.4780   17.0020    9.9210 C.3   163  ILE163      0.1561
     71  C         41.9690   17.5650   11.2510 C.2   163  ILE163      0.2260
     72  O         42.3800   18.7260   11.3450 O.2   163  ILE163     -0.2867
     73  CB        42.6790   16.5720    9.0130 C.3   163  ILE163      0.0252
     74  CG1       42.1510   15.8880    7.7390 C.3   163  ILE163      0.0019
     75  CG2       43.6240   15.6230    9.7720 C.3   163  ILE163      0.0019
     76  CD1       43.2150   15.2880    6.8260 C.3   163  ILE163      0.0001
     77  N         44.2810   16.5270   14.9330 N.3   165  ARG165     -0.1245
     78  CA        45.2000   15.6630   15.6570 C.3   165  ARG165      0.1563
     79  C         44.5610   15.6530   17.0500 C.2   165  ARG165      0.2260
     80  O         44.4490   16.7030   17.6990 O.2   165  ARG165     -0.2867
     81  CB        46.6170   16.2510   15.7410 C.3   165  ARG165      0.0307
     82  CG        47.5930   15.3140   16.4600 C.3   165  ARG165      0.0489
     83  CD        48.9260   15.9610   16.7740 C.3   165  ARG165      0.2205
     84  NE        49.7180   15.1150   17.6710 N.pl3 165  ARG165     -0.0865
     85  CZ        50.6320   14.2320   17.2720 C.cat 165  ARG165      0.5346
     86  NH1       50.8960   14.0630   15.9800 N.pl3 165  ARG165      0.1354
     87  NH2       51.2690   13.4950   18.1720 N.pl3 165  ARG165      0.1354
     88  N         42.4370    7.3240   12.5910 N.3   189  GLU189     -0.1231
     89  CA        43.6830    6.5830   12.3840 C.3   189  GLU189      0.1699
     90  C         44.6320    6.7530   13.5550 C.2   189  GLU189      0.2592
     91  O         44.6330    7.8010   14.2070 O.2   189  GLU189     -0.2718
     92  CB        44.4150    7.0920   11.1340 C.3   189  GLU189      0.0402
     93  CG        43.6680    6.9630    9.8050 C.3   189  GLU189      0.1161
     94  CD        44.4410    7.5400    8.6230 C.2   189  GLU189      0.3649
     95  OE1       45.6660    7.7910    8.7460 O.co2 189  GLU189     -0.2457
     96  OE2       43.8090    7.7690    7.5610 O.co2 189  GLU189     -0.2457
     97  N         45.4730    5.7430   13.7920 N.am  190  LYS190     -0.1966
     98  CA        46.4750    5.8220   14.8600 C.3   190  LYS190      0.1728
     99  C         47.5450    6.7670   14.3580 C.2   190  LYS190      0.2616
    100  O         48.0350    6.6100   13.2480 O.2   190  LYS190     -0.2715
    101  CB        47.0910    4.4450   15.1790 C.3   190  LYS190      0.0311
    102  CG        47.8580    4.4270   16.5170 C.3   190  LYS190      0.0038
    103  CD        48.2020    3.0310   17.0310 C.3   190  LYS190      0.0206
    104  CE        49.5270    2.5140   16.4880 C.3   190  LYS190      0.1093
    105  NZ        49.8480    1.1680   17.0490 N.3   190  LYS190     -0.1314
    106  N         47.8300    7.8010   15.1400 N.am  191  ALA191     -0.1963
    107  CA        48.8440    8.7760   14.7570 C.3   191  ALA191      0.1728
    108  C         50.2390    8.2430   14.9990 C.2   191  ALA191      0.2616
    109  O         50.5090    7.6120   16.0270 O.2   191  ALA191     -0.2715
    110  CB        48.6560   10.0530   15.5080 C.3   191  ALA191      0.0334
    111  N         51.1010    8.4460   14.0110 N.am  192  LEU192     -0.1977
    112  CA        52.4860    8.0260   14.1060 C.3   192  LEU192      0.1596
    113  C         53.2620    9.2530   14.5850 C.2   192  LEU192      0.2287
    114  O         53.1760   10.3210   13.9730 O.2   192  LEU192     -0.2864
    115  CB        52.9810    7.5290   12.7500 C.3   192  LEU192      0.0297
    116  CG        52.2830    6.3120   12.1300 C.3   192  LEU192      0.0022
    117  CD1       52.6980    6.2130   10.6930 C.3   192  LEU192      0.0001
    118  CD2       52.6070    5.0170   12.8690 C.3   192  LEU192      0.0001
    119  N         57.0100   11.1490   12.8170 N.3   195  VAL195     -0.1245
    120  CA        56.7930   10.5950   11.4920 C.3   195  VAL195      0.1561
    121  C         57.4690   11.3880   10.3840 C.2   195  VAL195      0.2260
    122  O         57.6640   12.6060   10.4890 O.2   195  VAL195     -0.2867
    123  CB        55.2550   10.4440   11.2100 C.3   195  VAL195      0.0252
    124  CG1       54.5750   11.8010   11.0240 C.3   195  VAL195      0.0019
    125  CG2       54.9950    9.5030   10.0460 C.3   195  VAL195      0.0019
    126  N         57.2790   11.9780    6.1950 N.3   197  GLU197     -0.1245
    127  CA        56.3570   11.8890    5.0700 C.3   197  GLU197      0.1567
    128  C         57.0410   11.7930    3.7150 C.2   197  GLU197      0.2260
    129  O         57.7650   12.6980    3.3070 O.2   197  GLU197     -0.2867
    130  CB        55.4010   13.0750    5.0880 C.3   197  GLU197      0.0388
    131  CG        54.6400   13.2160    6.3960 C.3   197  GLU197      0.1160
    132  CD        53.3770   14.0040    6.2340 C.2   197  GLU197      0.3649
    133  OE1       53.2560   15.0640    6.8790 O.co2 197  GLU197     -0.2457
    134  OE2       52.5010   13.5580    5.4620 O.co2 197  GLU197     -0.2457
    135  N         58.5770   20.2540    7.3100 N.3   218  TYR218     -0.1241
    136  CA        57.8520   21.4660    7.7040 C.3   218  TYR218      0.1605
    137  C         57.9240   21.6830    9.2150 C.2   218  TYR218      0.2264
    138  O         58.2200   20.7480    9.9680 O.2   218  TYR218     -0.2867
    139  CB        56.3650   21.3650    7.2690 C.3   218  TYR218      0.0534
    140  CG        55.6470   20.0890    7.7030 C.ar  218  TYR218     -0.0201
    141  CD1       55.0670   19.9790    8.9880 C.ar  218  TYR218     -0.0009
    142  CD2       55.6450   18.9420    6.8770 C.ar  218  TYR218     -0.0009
    143  CE1       54.5280   18.7560    9.4450 C.ar  218  TYR218      0.0417
    144  CE2       55.0970   17.7090    7.3270 C.ar  218  TYR218      0.0417
    145  CZ        54.5460   17.6300    8.6140 C.ar  218  TYR218      0.1957
    146  OH        54.0260   16.4420    9.0730 O.3   218  TYR218     -0.2866
    147  N         51.2140   19.4530   11.9570 N.3   222  PHE222     -0.1227
    148  CA        51.0870   18.4650   10.8920 C.3   222  PHE222      0.1736
    149  C         51.0650   19.2130    9.5600 C.2   222  PHE222      0.2595
    150  O         51.1450   20.4430    9.5410 O.2   222  PHE222     -0.2718
    151  CB        49.8910   17.4940   11.0770 C.3   222  PHE222      0.0547
    152  CG        48.5230   18.1300   11.0100 C.ar  222  PHE222     -0.0202
    153  CD1       47.7250   17.9760    9.8550 C.ar  222  PHE222     -0.0042
    154  CD2       47.9930   18.8200   12.1200 C.ar  222  PHE222     -0.0042
    155  CE1       46.4050   18.5010    9.8000 C.ar  222  PHE222     -0.0003
    156  CE2       46.6690   19.3570   12.0910 C.ar  222  PHE222     -0.0003
    157  CZ        45.8730   19.1970   10.9290 C.ar  222  PHE222     -0.0000
    158  N         51.0260   18.4690    8.4580 N.am  223  TYR223     -0.1976
    159  CA        51.0090   19.0380    7.1120 C.3   223  TYR223      0.1639
    160  C         49.5740   19.5330    6.8420 C.2   223  TYR223      0.2290
    161  O         48.7710   18.8510    6.1980 O.2   223  TYR223     -0.2864
    162  CB        51.4570   17.9380    6.1290 C.3   223  TYR223      0.0560
    163  CG        51.9190   18.3460    4.7320 C.ar  223  TYR223     -0.0198
    164  CD1       52.3640   19.6570    4.4360 C.ar  223  TYR223     -0.0009
    165  CD2       51.9140   17.3950    3.6850 C.ar  223  TYR223     -0.0009
    166  CE1       52.7870   20.0050    3.1200 C.ar  223  TYR223      0.0417
    167  CE2       52.3300   17.7310    2.3820 C.ar  223  TYR223      0.0417
    168  CZ        52.7620   19.0360    2.1060 C.ar  223  TYR223      0.1957
    169  OH        53.1540   19.3490    0.8270 O.3   223  TYR223     -0.2866
    170  N         50.5820   23.6620    3.4100 N.3   228  LYS228     -0.1231
    171  CA        50.4970   23.1480    2.0540 C.3   228  LYS228      0.1693
    172  C         50.4750   24.2110    0.9740 C.2   228  LYS228      0.2592
    173  O         51.1460   24.0530   -0.0400 O.2   228  LYS228     -0.2718
    174  CB        49.2560   22.2610    1.8930 C.3   228  LYS228      0.0285
    175  CG        49.3660   20.9150    2.5540 C.3   228  LYS228      0.0035
    176  CD        48.0930   20.1190    2.4970 C.3   228  LYS228      0.0206
    177  CE        48.3670   18.6890    2.9190 C.3   228  LYS228      0.1093
    178  NZ        47.1350   17.8760    3.0040 N.3   228  LYS228     -0.1314
    179  N         49.7340   25.2970    1.2110 N.am  229  TYR229     -0.1976
    180  CA        49.5650   26.3560    0.2120 C.3   229  TYR229      0.1639
    181  C         50.2120   27.7220    0.3880 C.2   229  TYR229      0.2290
    182  O         50.0360   28.5980   -0.4690 O.2   229  TYR229     -0.2864
    183  CB        48.0760   26.5040   -0.1330 C.3   229  TYR229      0.0560
    184  CG        47.4690   25.1850   -0.5260 C.ar  229  TYR229     -0.0198
    185  CD1       46.5410   24.5420    0.3140 C.ar  229  TYR229     -0.0009
    186  CD2       47.9110   24.5050   -1.6840 C.ar  229  TYR229     -0.0009
    187  CE1       46.0720   23.2450    0.0200 C.ar  229  TYR229      0.0417
    188  CE2       47.4500   23.2050   -1.9880 C.ar  229  TYR229      0.0417
    189  CZ        46.5330   22.5830   -1.1350 C.ar  229  TYR229      0.1957
    190  OH        46.0750   21.3260   -1.4500 O.3   229  TYR229     -0.2866
    191  N         49.5120   10.6000   -7.0800 N.3   268  ARG268     -0.1245
    192  CA        50.6190   10.9300   -6.2070 C.3   268  ARG268      0.1563
    193  C         50.3080   10.0580   -5.0100 C.2   268  ARG268      0.2260
    194  O         49.2090   10.1250   -4.4460 O.2   268  ARG268     -0.2867
    195  CB        50.6500   12.3970   -5.8050 C.3   268  ARG268      0.0307
    196  CG        51.9700   12.7670   -5.1450 C.3   268  ARG268      0.0489
    197  CD        51.9400   14.1480   -4.5310 C.3   268  ARG268      0.2205
    198  NE        51.2150   14.1480   -3.2630 N.pl3 268  ARG268     -0.0865
    199  CZ        50.0810   14.8030   -3.0460 C.cat 268  ARG268      0.5346
    200  NH1       49.5000   14.7310   -1.8600 N.pl3 268  ARG268      0.1354
    201  NH2       49.5360   15.5450   -4.0040 N.pl3 268  ARG268      0.1354
    202  N         51.1710    8.9950   -1.3010 N.3   270  ASP270     -0.1239
    203  CA        51.7840    9.5000   -0.0730 C.3   270  ASP270      0.1674
    204  C         52.0320    8.3700    0.9020 C.2   270  ASP270      0.2266
    205  O         51.2420    7.4310    0.9900 O.2   270  ASP270     -0.2867
    206  CB        50.9150   10.5860    0.5750 C.3   270  ASP270      0.1410
    207  CG        50.6650   11.7850   -0.3440 C.2   270  ASP270      0.3668
    208  OD1       51.3020   11.9030   -1.4190 O.co2 270  ASP270     -0.2456
    209  OD2       49.8190   12.6250    0.0190 O.co2 270  ASP270     -0.2456
    210  N         54.1790    7.1540    4.8520 N.3   272  PHE272     -0.1241
    211  CA        54.6250    7.5000    6.1930 C.3   272  PHE272      0.1605
    212  C         55.7760    6.5660    6.5290 C.2   272  PHE272      0.2264
    213  O         55.7600    5.3860    6.1510 O.2   272  PHE272     -0.2867
    214  CB        53.5200    7.2860    7.2300 C.3   272  PHE272      0.0534
    215  CG        52.4310    8.3260    7.2090 C.ar  272  PHE272     -0.0203
    216  CD1       52.7190    9.6870    6.9560 C.ar  272  PHE272     -0.0042
    217  CD2       51.0910    7.9400    7.4230 C.ar  272  PHE272     -0.0042
    218  CE1       51.6870   10.6500    6.9040 C.ar  272  PHE272     -0.0003
    219  CE2       50.0490    8.8870    7.3800 C.ar  272  PHE272     -0.0003
    220  CZ        50.3490   10.2510    7.1150 C.ar  272  PHE272     -0.0000
    221  N         49.7640    6.0280    3.0200 N.3   281  ASN281     -0.1225
    222  CA        48.7750    6.9590    3.5340 C.3   281  ASN281      0.1785
    223  C         47.5520    6.9880    2.6190 C.2   281  ASN281      0.2597
    224  O         46.4560    6.6200    3.0480 O.2   281  ASN281     -0.2718
    225  CB        49.4110    8.3510    3.6680 C.3   281  ASN281      0.1169
    226  CG        48.4540    9.4070    4.2080 C.2   281  ASN281      0.2627
    227  OD1       47.4350    9.0920    4.8170 O.2   281  ASN281     -0.2716
    228  ND2       48.8120   10.6760    4.0190 N.am  281  ASN281     -0.0877
    229  N         47.7540    7.4150    1.3700 N.am  282  GLU282     -0.1979
    230  CA        46.6800    7.5250    0.3700 C.3   282  GLU282      0.1602
    231  C         47.2250    7.7460   -1.0400 C.2   282  GLU282      0.2287
    232  O         48.4060    8.0650   -1.2280 O.2   282  GLU282     -0.2864
    233  CB        45.7500    8.7210    0.6880 C.3   282  GLU282      0.0415
    234  CG        46.4500   10.1020    0.6920 C.3   282  GLU282      0.1163
    235  CD        45.5130   11.2910    0.4950 C.2   282  GLU282      0.3649
    236  OE1       44.3020   11.1080    0.2270 O.co2 282  GLU282     -0.2457
    237  OE2       46.0070   12.4350    0.5940 O.co2 282  GLU282     -0.2457
    238  N         46.2080    9.9450   -4.5490 N.3   284  ASN284     -0.1240
    239  CA        45.4260   11.0960   -4.9960 C.3   284  ASN284      0.1653
    240  C         45.4050   11.0210   -6.5150 C.2   284  ASN284      0.2266
    241  O         46.4480   11.1470   -7.1450 O.2   284  ASN284     -0.2867
    242  CB        46.0680   12.4090   -4.5440 C.3   284  ASN284      0.1155
    243  CG        45.7830   12.7380   -3.0900 C.2   284  ASN284      0.2627
    244  OD1       46.6880   13.0970   -2.3420 O.2   284  ASN284     -0.2716
    245  ND2       44.5180   12.6480   -2.6910 N.am  284  ASN284     -0.0877
@<TRIPOS>BOND
     1   241   240    2
     2   191   192    1
     3   240   239    1
     4   192   195    1
     5   192   193    1
     6   195   196    1
     7   196   197    1
     8   193   194    2
     9   239   238    1
    10   239   242    1
    11     4     3    2
    12   242   243    1
    13   197   198    1
    14   201   199    1
    15     3     2    1
    16   198   199    2
    17   243   245   am
    18   243   244    2
    19   199   200    1
    20     5     2    1
    21     5     6    1
    22     2     1    1
    23     8     7   ar
    24   188   186   ar
    25   188   189   ar
    26     7     9   ar
    27     7     6    1
    28   186   184   ar
    29   190   189    1
    30   208   207   ar
    31   202   203    1
    32   232   231    2
    33   189   187   ar
    34   231   230    1
    35    62    61    1
    36   184   183    1
    37   184   185   ar
    38   182   181    2
    39   207   209   ar
    40   207   206    1
    41   183   180    1
    42   203   206    1
    43   203   204    1
    44   173   172    2
    45   187   185   ar
    46   180   181    1
    47   180   179    1
    48   236   235   ar
    49   230   233    1
    50   230   229    1
    51   235   237   ar
    52   235   234    1
    53    54    55    1
    54    54    53    1
    55   233   234    1
    56    61    58    1
    57   169   168    1
    58    49    48    2
    59   204   205    2
    60    57    55   am
    61    57    58    1
    62   172   179   am
    63   172   171    1
    64    55    56    2
    65    53    48   am
    66   229   223   am
    67    48    47    1
    68    58    59    1
    69   174   171    1
    70   174   175    1
    71   171   170    1
    72   168   167   ar
    73   168   166   ar
    74    10    11    1
    75    47    46    1
    76    47    50    1
    77   167   165   ar
    78   176   175    1
    79   176   177    1
    80   223   224    2
    81   223   222    1
    82   177   178    1
    83    18    17    1
    84    59    60    2
    85    59    63   am
    86    11    12    1
    87    11    14    1
    88   221   222    1
    89   166   164   ar
    90    15    14    1
    91    15    16    1
    92   129   128    2
    93    17    16    1
    94   222   225    1
    95    50    51    1
    96    50    52    1
    97   225   226    1
    98   165   163   ar
    99    63    64    1
   100   128   127    1
   101    12    13    2
   102   228   226   am
   103   226   227    2
   104   164   163   ar
   105   163   162    1
   106   210   211    1
   107   127   130    1
   108   127   126    1
   109   130   131    1
   110    64    67    1
   111    64    65    1
   112   134   132   ar
   113    68    67    1
   114    65    66    2
   115   162   159    1
   116   213   212    2
   117   211   212    1
   118   211   214    1
   119   161   160    2
   120   132   131    1
   121   132   133   ar
   122    76    74    1
   123   160   159    1
   124   142   144   ar
   125   142   140   ar
   126   218   216   ar
   127   218   220   ar
   128   216   215   ar
   129   159   158    1
   130   220   219   ar
   131   215   214    1
   132   215   217   ar
   133    45    44    1
   134   139   140    1
   135   139   136    1
   136   135   136    1
   137   144   145   ar
   138   219   217   ar
   139    43    44    1
   140    43    42    1
   141    96    94   ar
   142   140   141   ar
   143   136   137    1
   144    74    73    1
   145    41    42    1
   146    41    38    1
   147    19    20    1
   148    39    40    2
   149    39    38    1
   150   158   149   am
   151   145   146    1
   152   145   143   ar
   153    94    95   ar
   154    94    93    1
   155   141   143   ar
   156    38    37    1
   157    73    75    1
   158    73    70    1
   159    25    23    1
   160   137   138    2
   161    69    70    1
   162    22    21    2
   163   150   149    2
   164   149   148    1
   165    20    23    1
   166    20    21    1
   167    23    24    1
   168   155   153   ar
   169   155   157   ar
   170    93    92    1
   171   153   152   ar
   172    70    71    1
   173   125   123    1
   174   121   122    2
   175   121   120    1
   176   117   116    1
   177   148   151    1
   178   148   147    1
   179   157   156   ar
   180   152   151    1
   181   152   154   ar
   182   124   123    1
   183    92    89    1
   184   123   120    1
   185    71    72    2
   186   120   119    1
   187    32    34   ar
   188    32    31   ar
   189    34    36   ar
   190   156   154   ar
   191   116   115    1
   192   116   118    1
   193    30    31    1
   194    30    27    1
   195    31    33   ar
   196    29    28    2
   197    89    88    1
   198    89    90    1
   199    36    35   ar
   200   115   112    1
   201    28    27    1
   202    33    35   ar
   203   100    99    2
   204    27    26    1
   205    90    97   am
   206    90    91    2
   207    97    98    1
   208   114   113    2
   209   111   112    1
   210   111   108   am
   211   112   113    1
   212    99    98    1
   213    99   106   am
   214   107   108    1
   215   107   106    1
   216   107   110    1
   217    98   101    1
   218    77    78    1
   219   108   109    2
   220   101   102    1
   221    78    81    1
   222    78    79    1
   223    81    82    1
   224    86    85    1
   225    82    83    1
   226   104   103    1
   227   104   105    1
   228   102   103    1
   229    83    84    1
   230    79    80    2
   231    85    84    2
   232    85    87    1
