@<TRIPOS>MOLECULE
tmp/2zdrA00.pdb
 123 114 0 0 0
SMALL
GASTEIGER

@<TRIPOS>ATOM
      1  N         16.4600   14.4980    7.9530 N.3    24  GLU24      -0.1245
      2  CA        16.3320   15.9310    8.1430 C.3    24  GLU24       0.1567
      3  C         16.5630   16.6890    6.8740 C.2    24  GLU24       0.2260
      4  O         17.6990   16.9220    6.4400 O.2    24  GLU24      -0.2867
      5  CB        17.2320   16.4830    9.2260 C.3    24  GLU24       0.0388
      6  CG        16.9430   17.9870    9.3360 C.3    24  GLU24       0.1160
      7  CD        17.8760   18.6900   10.2310 C.2    24  GLU24       0.3649
      8  OE1       18.9320   18.1080   10.5700 O.co2  24  GLU24      -0.2457
      9  OE2       17.5560   19.8290   10.6110 O.co2  24  GLU24      -0.2457
     10  N         12.0570   15.2080    8.7500 N.3    52  LYS52      -0.1245
     11  CA        12.0660   16.3180    9.6860 C.3    52  LYS52       0.1561
     12  C         12.3450   17.6470    8.9880 C.2    52  LYS52       0.2260
     13  O         13.2300   17.7390    8.1430 O.2    52  LYS52      -0.2867
     14  CB        13.0930   16.1000   10.8130 C.3    52  LYS52       0.0271
     15  CG        12.9110   17.1290   11.9570 C.3    52  LYS52       0.0035
     16  CD        14.0140   17.0560   12.9780 C.3    52  LYS52       0.0206
     17  CE        15.2890   17.6390   12.4540 C.3    52  LYS52       0.1093
     18  NZ        15.0820   19.0900   12.1400 N.3    52  LYS52      -0.1314
     19  N         12.7960   22.1120    9.5560 N.3    54  GLN54      -0.1245
     20  CA        13.1480   23.1570   10.5350 C.3    54  GLN54       0.1566
     21  C         12.1460   24.2990   10.3570 C.2    54  GLN54       0.2260
     22  O         11.8770   24.7110    9.2440 O.2    54  GLN54      -0.2867
     23  CB        14.5520   23.6940   10.2860 C.3    54  GLN54       0.0367
     24  CG        15.6560   22.6870   10.5690 C.3    54  GLN54       0.0905
     25  CD        17.0290   23.1870   10.2100 C.2    54  GLN54       0.2608
     26  OE1       17.9830   22.4080   10.1070 O.2    54  GLN54      -0.2717
     27  NE2       17.1600   24.4820   10.0640 N.am   54  GLN54      -0.0878
     28  N         11.7600   20.8950   13.9380 N.3   109  THR109     -0.1218
     29  CA        12.4230   21.6160   15.0250 C.3   109  THR109      0.1862
     30  C         12.0030   23.0890   15.0110 C.2   109  THR109      0.2287
     31  O         12.2990   23.7910   14.0590 O.2   109  THR109     -0.2866
     32  CB        13.9370   21.6160   14.8000 C.3   109  THR109      0.1770
     33  OG1       14.3780   20.2770   14.6780 O.3   109  THR109     -0.2211
     34  CG2       14.6910   22.2810   15.9490 C.3   109  THR109      0.0375
     35  N         12.7560   26.7550   16.0630 N.3   111  PHE111     -0.1241
     36  CA        13.8560   27.5610   16.5810 C.3   111  PHE111      0.1605
     37  C         13.3970   28.7990   17.3350 C.2   111  PHE111      0.2264
     38  O         14.1830   29.6800   17.6250 O.2   111  PHE111     -0.2867
     39  CB        14.8010   27.9630   15.4600 C.3   111  PHE111      0.0534
     40  CG        15.5650   26.8290   14.9170 C.ar  111  PHE111     -0.0203
     41  CD1       14.9510   25.9530   14.0620 C.ar  111  PHE111     -0.0042
     42  CD2       16.8960   26.6440   15.2410 C.ar  111  PHE111     -0.0042
     43  CE1       15.6240   24.8690   13.5620 C.ar  111  PHE111     -0.0003
     44  CE2       17.5950   25.5520   14.7190 C.ar  111  PHE111     -0.0003
     45  CZ        16.9400   24.6640   13.8900 C.ar  111  PHE111     -0.0000
     46  N         11.2970   18.0130   17.7800 N.3   128  LYS128     -0.1245
     47  CA        12.7700   17.9740   17.8950 C.3   128  LYS128      0.1561
     48  C         13.2400   19.3170   18.4360 C.2   128  LYS128      0.2260
     49  O         12.7230   20.3720   18.0470 O.2   128  LYS128     -0.2867
     50  CB        13.3950   17.6280   16.5370 C.3   128  LYS128      0.0271
     51  CG        14.9120   17.7080   16.4140 C.3   128  LYS128      0.0035
     52  CD        15.5770   16.5010   17.0370 C.3   128  LYS128      0.0206
     53  CE        16.9860   16.8480   17.4670 C.3   128  LYS128      0.1093
     54  NZ        17.8500   17.1980   16.3150 N.3   128  LYS128     -0.1314
     55  N         16.7570   21.3980   18.7640 N.3   130  GLY130     -0.1210
     56  CA        18.1190   21.3650   18.2500 C.3   130  GLY130      0.1956
     57  C         19.1510   21.6350   19.3150 C.2   130  GLY130      0.2613
     58  O         18.8260   22.1600   20.3580 O.2   130  GLY130     -0.2717
     59  N         20.4240   21.3000   19.0630 N.am  131  SER131     -0.1938
     60  CA        21.4490   21.5500   20.0760 C.3   131  SER131      0.2055
     61  C         21.5830   23.0140   20.5340 C.2   131  SER131      0.2643
     62  O         21.9120   23.2660   21.6920 O.2   131  SER131     -0.2714
     63  CB        22.7990   21.0850   19.5640 C.3   131  SER131      0.2130
     64  OG        22.7510   19.6940   19.4080 O.3   131  SER131     -0.2179
     65  N         21.3710   23.9600   19.6130 N.am  132  GLY132     -0.1954
     66  CA        21.4090   25.3880   19.9320 C.3   132  GLY132      0.1869
     67  C         20.3660   25.7920   20.9780 C.2   132  GLY132      0.2309
     68  O         20.5740   26.7580   21.7440 O.2   132  GLY132     -0.2863
     69  N         18.3580   17.1580   21.0540 N.3   153  SER153     -0.1217
     70  CA        19.7820   17.1010   20.6920 C.3   153  SER153      0.1889
     71  C         20.5860   17.8000   21.7640 C.2   153  SER153      0.2288
     72  O         20.1370   18.7870   22.3270 O.2   153  SER153     -0.2866
     73  CB        20.0300   17.7610   19.3390 C.3   153  SER153      0.2089
     74  OG        19.9220   16.8140   18.2740 O.3   153  SER153     -0.2183
     75  N         28.1870   19.7310   16.8460 N.3   183  ASN183     -0.1240
     76  CA        27.7380   20.7230   15.8810 C.3   183  ASN183      0.1653
     77  C         28.8440   21.4340   15.1620 C.2   183  ASN183      0.2266
     78  O         29.1040   22.6070   15.4060 O.2   183  ASN183     -0.2867
     79  CB        26.8000   21.7340   16.5260 C.3   183  ASN183      0.1155
     80  CG        25.5980   21.1090   17.0700 C.2   183  ASN183      0.2627
     81  OD1       25.6000   20.5880   18.1860 O.2   183  ASN183     -0.2716
     82  ND2       24.5300   21.1600   16.3040 N.am  183  ASN183     -0.0877
     83  N         30.0490   21.5210   11.0050 N.3   185  TYR185     -0.1241
     84  CA        29.5340   21.1430    9.7030 C.3   185  TYR185      0.1605
     85  C         30.5690   21.2070    8.5780 C.2   185  TYR185      0.2264
     86  O         30.7390   22.2630    7.9830 O.2   185  TYR185     -0.2867
     87  CB        28.3370   22.0280    9.3700 C.3   185  TYR185      0.0534
     88  CG        27.3050   22.0580   10.4850 C.ar  185  TYR185     -0.0201
     89  CD1       27.4680   22.8750   11.5990 C.ar  185  TYR185     -0.0009
     90  CD2       26.1860   21.2840   10.4180 C.ar  185  TYR185     -0.0009
     91  CE1       26.5170   22.8950   12.6440 C.ar  185  TYR185      0.0417
     92  CE2       25.2260   21.2930   11.4450 C.ar  185  TYR185      0.0417
     93  CZ        25.4080   22.0850   12.5580 C.ar  185  TYR185      0.1957
     94  OH        24.4490   22.0840   13.5600 O.3   185  TYR185     -0.2866
     95  N         26.7180   14.8120   11.8890 N.3   214  HIS214     -0.1241
     96  CA        27.0770   15.7600   10.8440 C.3   214  HIS214      0.1621
     97  C         28.4440   15.3940   10.2390 C.2   214  HIS214      0.2264
     98  O         29.1390   16.2740    9.6810 O.2   214  HIS214     -0.2867
     99  CB        27.0320   17.2230   11.3700 C.3   214  HIS214      0.0745
    100  CG        25.6860   17.6330   11.9140 C.ar  214  HIS214      0.0817
    101  ND1       25.4080   17.6840   13.2680 N.ar  214  HIS214     -0.2268
    102  CD2       24.5350   17.9760   11.2860 C.ar  214  HIS214      0.1154
    103  CE1       24.1400   18.0330   13.4450 C.ar  214  HIS214      0.1986
    104  NE2       23.5880   18.2240   12.2560 N.ar  214  HIS214     -0.2212
    105  N         19.8170   10.5500   13.2290 N.3   233  GLU233     -0.1245
    106  CA        19.3920   11.6870   12.4050 C.3   233  GLU233      0.1567
    107  C         20.5850   12.1510   11.5890 C.2   233  GLU233      0.2260
    108  O         21.6580   12.3830   12.1420 O.2   233  GLU233     -0.2867
    109  CB        18.8590   12.7970   13.3120 C.3   233  GLU233      0.0388
    110  CG        18.3880   14.0870   12.5860 C.3   233  GLU233      0.1160
    111  CD        18.0180   15.1460   13.6010 C.2   233  GLU233      0.3649
    112  OE1       16.8230   15.2710   13.9300 O.co2 233  GLU233     -0.2457
    113  OE2       18.9360   15.8220   14.1110 O.co2 233  GLU233     -0.2457
    114  N         21.1830   14.8300    7.9600 N.3   235  HIS235     -0.1241
    115  CA        20.5370   15.6650    6.9650 C.3   235  HIS235      0.1621
    116  C         20.2910   14.8040    5.7190 C.2   235  HIS235      0.2264
    117  O         20.9700   13.7830    5.5010 O.2   235  HIS235     -0.2867
    118  CB        21.3480   16.9520    6.7270 C.3   235  HIS235      0.0745
    119  CG        21.3430   17.9060    7.9030 C.ar  235  HIS235      0.0817
    120  ND1       20.8870   19.2070    7.8110 N.ar  235  HIS235     -0.2268
    121  CD2       21.7340   17.7410    9.1960 C.ar  235  HIS235      0.1154
    122  CE1       21.0140   19.8020    8.9940 C.ar  235  HIS235      0.1986
    123  NE2       21.5180   18.9310    9.8590 N.ar  235  HIS235     -0.2212
@<TRIPOS>BOND
     1   117   116    2
     2   116   115    1
     3     4     3    2
     4   118   115    1
     5   118   119    1
     6     3     2    1
     7   115   114    1
     8   120   119   ar
     9   120   122   ar
    10   119   121   ar
    11     1     2    1
    12    86    85    2
    13    13    12    2
    14     2     5    1
    15    85    84    1
    16    10    11    1
    17    12    11    1
    18   122   123   ar
    19   121   123   ar
    20     5     6    1
    21    22    21    2
    22     6     7    1
    23    87    84    1
    24    87    88    1
    25    19    20    1
    26    98    97    2
    27    11    14    1
    28    84    83    1
    29    27    25   am
    30    26    25    2
    31    25    24    1
    32     7     8   ar
    33     7     9   ar
    34    97    96    1
    35    23    20    1
    36    23    24    1
    37    21    20    1
    38    90    88   ar
    39    90    92   ar
    40    88    89   ar
    41    14    15    1
    42    96    99    1
    43    96    95    1
    44   102   100   ar
    45   102   104   ar
    46    99   100    1
    47    92    93   ar
    48   107   108    2
    49   107   106    1
    50    89    91   ar
    51   100   101   ar
    52    15    16    1
    53    18    17    1
    54   104   103   ar
    55   106   105    1
    56   106   109    1
    57    17    16    1
    58    93    91   ar
    59    93    94    1
    60   110   109    1
    61   110   111    1
    62   101   103   ar
    63    43    45   ar
    64    43    41   ar
    65   111   112   ar
    66   111   113   ar
    67    45    44   ar
    68    28    29    1
    69    31    30    2
    70    41    40   ar
    71    33    32    1
    72    44    42   ar
    73    32    29    1
    74    32    34    1
    75    40    42   ar
    76    40    39    1
    77    30    29    1
    78    77    78    2
    79    77    76    1
    80    39    36    1
    81    76    79    1
    82    76    75    1
    83    35    36    1
    84    82    80   am
    85    54    53    1
    86    51    50    1
    87    51    52    1
    88    79    80    1
    89    50    47    1
    90    36    37    1
    91    52    53    1
    92    80    81    2
    93    37    38    2
    94    46    47    1
    95    47    48    1
    96    49    48    2
    97    56    55    1
    98    56    57    1
    99    74    73    1
   100    59    57   am
   101    59    60    1
   102    57    58    2
   103    73    70    1
   104    64    63    1
   105    63    60    1
   106    65    66    1
   107    65    61   am
   108    66    67    1
   109    60    61    1
   110    61    62    2
   111    70    69    1
   112    70    71    1
   113    67    68    2
   114    71    72    2
