@<TRIPOS>MOLECULE
tmp/2zdtA00.pdb
 157 145 0 0 0
SMALL
GASTEIGER

@<TRIPOS>ATOM
      1  N         52.5230    5.2800   41.2030 N.3    24  LYS24      -0.1245
      2  CA        53.5590    5.1420   40.1940 C.3    24  LYS24       0.1561
      3  C         53.2430    6.1700   39.0990 C.2    24  LYS24       0.2260
      4  O         52.1370    6.1960   38.5700 O.2    24  LYS24      -0.2867
      5  CB        53.5160    3.7130   39.6340 C.3    24  LYS24       0.0271
      6  CG        54.4910    3.4380   38.4950 C.3    24  LYS24       0.0035
      7  CD        54.1390    2.1350   37.7650 C.3    24  LYS24       0.0206
      8  CE        53.0710    2.3740   36.6940 C.3    24  LYS24       0.1093
      9  NZ        52.7820    1.1440   35.9150 N.3    24  LYS24      -0.1314
     10  N         52.7320    7.7040   35.6040 N.3    26  ILE26      -0.1231
     11  CA        52.4870    7.0610   34.3150 C.3    26  ILE26       0.1692
     12  C         52.6330    8.0590   33.1790 C.2    26  ILE26       0.2593
     13  O         52.7430    7.6850   32.0150 O.2    26  ILE26      -0.2718
     14  CB        51.0740    6.4110   34.2440 C.3    26  ILE26       0.0266
     15  CG1       49.9860    7.4530   34.5180 C.3    26  ILE26       0.0019
     16  CG2       50.9740    5.2510   35.2450 C.3    26  ILE26       0.0020
     17  CD1       48.5390    6.8870   34.3660 C.3    26  ILE26       0.0001
     18  N         52.6480    9.3350   33.5260 N.am   27  GLY27      -0.1942
     19  CA        52.6290   10.3590   32.5020 C.3    27  GLY27       0.2014
     20  C         52.6220   11.7490   33.0860 C.2    27  GLY27       0.2640
     21  O         52.5060   11.9270   34.3040 O.2    27  GLY27      -0.2714
     22  N         52.7490   12.7380   32.2080 N.am   28  SER28      -0.1935
     23  CA        52.7630   14.1320   32.6050 C.3    28  SER28       0.2055
     24  C         52.1270   14.9670   31.5010 C.2    28  SER28       0.2643
     25  O         52.3380   14.7090   30.3160 O.2    28  SER28      -0.2714
     26  CB        54.2020   14.5920   32.8330 C.3    28  SER28       0.2130
     27  OG        54.2260   15.9250   33.3120 O.3    28  SER28      -0.2179
     28  N         51.3410   15.9620   31.8980 N.am   29  GLY29      -0.1954
     29  CA        50.7170   16.8540   30.9420 C.3    29  GLY29       0.1869
     30  C         50.9760   18.2850   31.3500 C.2    29  GLY29       0.2309
     31  O         51.8880   18.5430   32.1380 O.2    29  GLY29      -0.2863
     32  N         50.5940   12.5680   36.5140 N.3    34  VAL34      -0.1245
     33  CA        49.5180   11.6480   36.8590 C.3    34  VAL34       0.1561
     34  C         50.1630   10.3490   37.3270 C.2    34  VAL34       0.2260
     35  O         51.0870    9.8630   36.6780 O.2    34  VAL34      -0.2867
     36  CB        48.6600   11.3450   35.6290 C.3    34  VAL34       0.0252
     37  CG1       47.5240   10.4220   36.0110 C.3    34  VAL34       0.0019
     38  CG2       48.1450   12.6650   35.0260 C.3    34  VAL34       0.0019
     39  N         49.4580    6.2370   38.6070 N.3    36  ALA36      -0.1245
     40  CA        48.5670    5.1090   38.8460 C.3    36  ALA36       0.1562
     41  C         48.6620    4.7400   40.3290 C.2    36  ALA36       0.2260
     42  O         49.6890    4.9800   40.9730 O.2    36  ALA36      -0.2867
     43  CB        48.9670    3.9120   37.9730 C.3    36  ALA36       0.0290
     44  N         43.6760    6.3550   38.5800 N.3    47  ALA47      -0.1245
     45  CA        44.6640    7.3750   38.2380 C.3    47  ALA47       0.1562
     46  C         44.4710    8.5960   39.1260 C.2    47  ALA47       0.2260
     47  O         43.3330    9.0170   39.3880 O.2    47  ALA47      -0.2867
     48  CB        44.5310    7.7770   36.7760 C.3    47  ALA47       0.0290
     49  N         45.5660   12.5760   39.5690 N.3    49  LYS49      -0.1245
     50  CA        46.0940   13.7510   38.8980 C.3    49  LYS49       0.1561
     51  C         46.2530   14.8580   39.9330 C.2    49  LYS49       0.2260
     52  O         45.2890   15.2330   40.6000 O.2    49  LYS49      -0.2867
     53  CB        45.1170   14.1800   37.8020 C.3    49  LYS49       0.0271
     54  CG        45.5060   15.4230   36.9810 C.3    49  LYS49       0.0035
     55  CD        44.5060   15.5710   35.8350 C.3    49  LYS49       0.0206
     56  CE        44.6340   16.8950   35.0990 C.3    49  LYS49       0.1093
     57  NZ        43.7760   16.8740   33.8820 N.3    49  LYS49      -0.1314
     58  N         36.2380   10.0110   30.3250 N.3    80  ILE80      -0.1245
     59  CA        36.8920    9.4770   31.5180 C.3    80  ILE80       0.1561
     60  C         36.0680    9.8490   32.7500 C.2    80  ILE80       0.2260
     61  O         35.5880   10.9870   32.8600 O.2    80  ILE80      -0.2867
     62  CB        38.3320   10.0720   31.6720 C.3    80  ILE80       0.0252
     63  CG1       39.1510    9.2720   32.6890 C.3    80  ILE80       0.0019
     64  CG2       38.2470   11.5170   32.0860 C.3    80  ILE80       0.0019
     65  CD1       39.7010    7.9520   32.1190 C.3    80  ILE80       0.0001
     66  N         40.7400    9.4230   39.0530 N.3   102  MET102     -0.1230
     67  CA        40.0350    9.0290   37.8430 C.3   102  MET102      0.1702
     68  C         40.1220    7.5420   37.6200 C.2   102  MET102      0.2592
     69  O         41.0230    6.8950   38.1410 O.2   102  MET102     -0.2718
     70  CB        40.6420    9.7240   36.6280 C.3   102  MET102      0.0401
     71  CG        39.7370   10.7770   36.0230 C.3   102  MET102      0.0596
     72  SD        39.7460   12.1680   37.0890 S.3   102  MET102     -0.1393
     73  CE        41.0930   13.1190   36.3220 C.3   102  MET102      0.0692
     74  N         39.2200    7.0000   36.8030 N.am  103  GLU103     -0.1966
     75  CA        39.3550    5.6040   36.4040 C.3   103  GLU103      0.1733
     76  C         40.6370    5.4700   35.6000 C.2   103  GLU103      0.2616
     77  O         41.0820    6.4290   34.9680 O.2   103  GLU103     -0.2715
     78  CB        38.1630    5.1400   35.5650 C.3   103  GLU103      0.0429
     79  CG        37.9030    5.9410   34.2960 C.3   103  GLU103      0.1163
     80  CD        36.6920    5.4220   33.5220 C.2   103  GLU103      0.3649
     81  OE1       36.3790    4.2140   33.6340 O.co2 103  GLU103     -0.2457
     82  OE2       36.0660    6.2130   32.8050 O.co2 103  GLU103     -0.2457
     83  N         41.2390    4.2880   35.6520 N.am  104  LEU104     -0.1963
     84  CA        42.5300    4.0630   35.0190 C.3   104  LEU104      0.1728
     85  C         42.3710    3.1290   33.8250 C.2   104  LEU104      0.2616
     86  O         41.6560    2.1370   33.9070 O.2   104  LEU104     -0.2715
     87  CB        43.5000    3.4490   36.0230 C.3   104  LEU104      0.0311
     88  CG        44.8960    3.1670   35.4720 C.3   104  LEU104      0.0022
     89  CD1       45.5860    4.4870   35.1700 C.3   104  LEU104      0.0001
     90  CD2       45.6990    2.3500   36.4820 C.3   104  LEU104      0.0001
     91  N         43.0210    3.4580   32.7080 N.am  105  MET105     -0.1963
     92  CA        43.0330    2.5700   31.5410 C.3   105  MET105      0.1736
     93  C         44.4470    1.9950   31.3710 C.2   105  MET105      0.2616
     94  O         45.2200    1.9740   32.3230 O.2   105  MET105     -0.2715
     95  CB        42.6110    3.3480   30.2850 C.3   105  MET105      0.0427
     96  CG        41.2570    4.0360   30.4290 C.3   105  MET105      0.0599
     97  SD        39.9300    2.8230   30.4330 S.3   105  MET105     -0.1393
     98  CE        39.7580    2.5370   28.6430 C.3   105  MET105      0.0692
     99  N         44.7850    1.5510   30.1610 N.am  106  ASP106     -0.1957
    100  CA        45.9970    0.7540   29.9490 C.3   106  ASP106      0.1840
    101  C         47.0610    1.4680   29.1280 C.2   106  ASP106      0.2622
    102  O         48.2540    1.2060   29.2880 O.2   106  ASP106     -0.2715
    103  CB        45.6520   -0.5570   29.2390 C.3   106  ASP106      0.1450
    104  CG        44.8700   -1.5140   30.1170 C.2   106  ASP106      0.3671
    105  OD1       44.9090   -1.3570   31.3300 O.co2 106  ASP106     -0.2456
    106  OD2       44.2190   -2.4150   29.5690 O.co2 106  ASP106     -0.2456
    107  N         46.6320    2.3570   28.2330 N.am  107  ALA107     -0.1963
    108  CA        47.5440    2.9190   27.2580 C.3   107  ALA107      0.1728
    109  C         47.0190    4.2040   26.6590 C.2   107  ALA107      0.2616
    110  O         45.8130    4.4670   26.6500 O.2   107  ALA107     -0.2715
    111  CB        47.8150    1.8890   26.1360 C.3   107  ALA107      0.0334
    112  N         47.9490    4.9900   26.1410 N.am  108  ASN108     -0.1972
    113  CA        47.6610    6.2280   25.4420 C.3   108  ASN108      0.1688
    114  C         47.3760    5.9170   23.9570 C.2   108  ASN108      0.2292
    115  O         47.9340    4.9680   23.4010 O.2   108  ASN108     -0.2864
    116  CB        48.8930    7.1210   25.5720 C.3   108  ASN108      0.1181
    117  CG        48.6260    8.5260   25.1860 C.2   108  ASN108      0.2629
    118  OD1       48.6380    8.8670   24.0070 O.2   108  ASN108     -0.2716
    119  ND2       48.3770    9.3720   26.1770 N.am  108  ASN108     -0.0877
    120  N         50.3310    5.3960   21.7910 N.3   111  GLN111     -0.1245
    121  CA        50.9480    4.0660   21.7280 C.3   111  GLN111      0.1566
    122  C         50.2450    3.2030   20.6780 C.2   111  GLN111      0.2260
    123  O         50.8770    2.4150   19.9660 O.2   111  GLN111     -0.2867
    124  CB        50.8760    3.3560   23.0870 C.3   111  GLN111      0.0367
    125  CG        51.5760    4.0790   24.2410 C.3   111  GLN111      0.0905
    126  CD        51.1780    3.5090   25.6030 C.2   111  GLN111      0.2608
    127  OE1       50.7160    4.2440   26.4930 O.2   111  GLN111     -0.2717
    128  NE2       51.3510    2.1920   25.7680 N.am  111  GLN111     -0.0878
    129  N         47.2580   12.3400   22.6540 N.3   149  SER149     -0.1202
    130  CA        47.9230   12.2020   23.9490 C.3   149  SER149      0.2020
    131  C         46.8890   12.2730   25.0750 C.2   149  SER149      0.2618
    132  O         47.1440   11.8190   26.1910 O.2   149  SER149     -0.2717
    133  CB        48.9960   13.2900   24.1340 C.3   149  SER149      0.2103
    134  OG        48.4580   14.5840   23.9570 O.3   149  SER149     -0.2182
    135  N         45.7110   12.8140   24.7630 N.am  150  ASN150     -0.1974
    136  CA        44.6480   12.9740   25.7530 C.3   150  ASN150      0.1688
    137  C         43.4640   12.0210   25.5620 C.2   150  ASN150      0.2292
    138  O         42.3390   12.3300   25.9620 O.2   150  ASN150     -0.2864
    139  CB        44.1380   14.4170   25.7430 C.3   150  ASN150      0.1181
    140  CG        45.1380   15.3810   26.2990 C.2   150  ASN150      0.2629
    141  OD1       45.9280   15.0220   27.1540 O.2   150  ASN150     -0.2716
    142  ND2       45.1140   16.6170   25.8180 N.am  150  ASN150     -0.0877
    143  N         42.6910    7.7410   25.9980 N.3   152  VAL152     -0.1245
    144  CA        43.3150    6.5350   26.5310 C.3   152  VAL152      0.1561
    145  C         42.5020    5.3080   26.1770 C.2   152  VAL152      0.2260
    146  O         41.2890    5.3940   25.9480 O.2   152  VAL152     -0.2867
    147  CB        43.4780    6.6100   28.0700 C.3   152  VAL152      0.0252
    148  CG1       44.5660    7.5910   28.4230 C.3   152  VAL152      0.0019
    149  CG2       42.1560    7.0650   28.7150 C.3   152  VAL152      0.0019
    150  N         40.0320   12.2690   27.7400 N.3   162  LEU162     -0.1245
    151  CA        40.4960   12.6640   29.0760 C.3   162  LEU162      0.1561
    152  C         40.0890   14.0750   29.4570 C.2   162  LEU162      0.2260
    153  O         40.0290   14.4100   30.6330 O.2   162  LEU162     -0.2867
    154  CB        42.0310   12.5660   29.1870 C.3   162  LEU162      0.0270
    155  CG        42.6750   11.1820   29.3130 C.3   162  LEU162      0.0019
    156  CD1       44.1950   11.3420   29.4700 C.3   162  LEU162      0.0001
    157  CD2       42.0820   10.4360   30.5240 C.3   162  LEU162      0.0001
@<TRIPOS>BOND
     1   123   122    2
     2   122   121    1
     3   121   120    1
     4   121   124    1
     5   129   130    1
     6   124   125    1
     7   115   114    2
     8   130   133    1
     9   130   131    1
    10   134   133    1
    11   114   113    1
    12   118   117    2
    13   125   126    1
    14   135   131   am
    15   135   136    1
    16   131   132    2
    17   117   116    1
    18   117   119   am
    19   113   116    1
    20   113   112    1
    21   137   136    1
    22   137   138    2
    23   126   128   am
    24   126   127    2
    25   139   136    1
    26   139   140    1
    27   142   140   am
    28   146   145    2
    29   143   144    1
    30   111   108    1
    31   112   109   am
    32   145   144    1
    33   140   141    2
    34   144   147    1
    35   110   109    2
    36   109   108    1
    37   108   107    1
    38   150   151    1
    39   147   148    1
    40   147   149    1
    41   107   101   am
    42    98    97    1
    43   151   154    1
    44   151   152    1
    45   101   102    2
    46   101   100    1
    47   154   155    1
    48   103   100    1
    49   103   104    1
    50   155   156    1
    51   155   157    1
    52   152   153    2
    53   106   104   ar
    54   100    99    1
    55   104   105   ar
    56    99    93   am
    57    95    96    1
    58    95    92    1
    59    25    24    2
    60    58    59    1
    61    96    97    1
    62    29    30    1
    63    29    28    1
    64    30    31    2
    65    93    92    1
    66    93    94    2
    67    24    28   am
    68    24    23    1
    69    59    62    1
    70    59    60    1
    71    92    91    1
    72    62    64    1
    73    62    63    1
    74    13    12    2
    75    65    63    1
    76    22    23    1
    77    22    20   am
    78    19    20    1
    79    19    18    1
    80    23    26    1
    81    91    85   am
    82    60    61    2
    83    82    80   ar
    84    26    27    1
    85    20    21    2
    86    12    18   am
    87    12    11    1
    88    80    81   ar
    89    80    79    1
    90    85    86    2
    91    85    84    1
    92    57    56    1
    93    14    11    1
    94    14    15    1
    95    14    16    1
    96    79    78    1
    97    11    10    1
    98    17    15    1
    99    77    76    2
   100    84    83    1
   101    84    87    1
   102    38    36    1
   103    56    55    1
   104    89    88    1
   105    88    87    1
   106    88    90    1
   107    78    75    1
   108    76    83   am
   109    76    75    1
   110    36    37    1
   111    36    33    1
   112    55    54    1
   113     9     8    1
   114    71    70    1
   115    71    72    1
   116    73    72    1
   117    75    74    1
   118    32    33    1
   119    70    67    1
   120    35    34    2
   121     8     7    1
   122    48    45    1
   123    74    68   am
   124    33    34    1
   125    54    53    1
   126    68    67    1
   127    68    69    2
   128     7     6    1
   129    53    50    1
   130    67    66    1
   131    43    40    1
   132    45    44    1
   133    45    46    1
   134     6     5    1
   135     4     3    2
   136    39    40    1
   137    40    41    1
   138    50    49    1
   139    50    51    1
   140     3     2    1
   141    46    47    2
   142     5     2    1
   143    51    52    2
   144     2     1    1
   145    41    42    2
