@<TRIPOS>MOLECULE
tmp/2zduA00.pdb
 172 161 0 0 0
SMALL
GASTEIGER

@<TRIPOS>ATOM
      1  N         14.1050  -13.9660  100.5590 N.3    21  ASN21      -0.1240
      2  CA        13.4500  -14.7560   99.5340 C.3    21  ASN21       0.1653
      3  C         14.1950  -14.7660   98.2030 C.2    21  ASN21       0.2266
      4  O         13.7830  -14.1000   97.2520 O.2    21  ASN21      -0.2867
      5  CB        12.0220  -14.2540   99.3270 C.3    21  ASN21       0.1155
      6  CG        11.2610  -15.0800   98.3040 C.2    21  ASN21       0.2627
      7  OD1       10.5180  -14.5380   97.4880 O.2    21  ASN21      -0.2716
      8  ND2       11.4470  -16.4010   98.3420 N.am   21  ASN21      -0.0877
      9  N         15.5730  -16.3840   94.7050 N.3    23  LYS23      -0.1231
     10  CA        15.1250  -17.2760   93.6510 C.3    23  LYS23       0.1678
     11  C         16.1430  -17.1630   92.5060 C.2    23  LYS23       0.2434
     12  O         16.5500  -16.0620   92.1270 O.2    23  LYS23      -0.2733
     13  CB        13.7270  -16.8470   93.1830 C.3    23  LYS23       0.0284
     14  CG        12.6370  -17.0930   94.2010 C.3    23  LYS23       0.0035
     15  CD        11.9730  -18.4510   93.9470 C.3    23  LYS23       0.0206
     16  CE        11.3630  -19.0670   95.2150 C.3    23  LYS23       0.1093
     17  NZ        11.2050  -20.5570   95.1080 N.3    23  LYS23      -0.1314
     18  N         16.5860  -18.2970   91.9500 N.am   24  PRO24      -0.2718
     19  CA        17.5690  -18.2130   90.8670 C.3    24  PRO24       0.1535
     20  C         16.9340  -17.6950   89.5730 C.2    24  PRO24       0.2598
     21  O         15.8130  -18.0700   89.2410 O.2    24  PRO24      -0.2715
     22  CB        18.0710  -19.6480   90.7350 C.3    24  PRO24       0.0310
     23  CG        16.9320  -20.4750   91.2030 C.3    24  PRO24       0.0237
     24  CD        16.2420  -19.6880   92.2790 C.3    24  PRO24       0.0939
     25  N         17.6400  -16.8350   88.8420 N.am   25  ILE25      -0.1964
     26  CA        17.0970  -16.3310   87.5830 C.3    25  ILE25       0.1727
     27  C         17.9170  -16.6580   86.3400 C.2    25  ILE25       0.2617
     28  O         17.3730  -16.6830   85.2400 O.2    25  ILE25      -0.2715
     29  CB        16.8810  -14.8080   87.6150 C.3    25  ILE25       0.0290
     30  CG1       18.2010  -14.0980   87.8920 C.3    25  ILE25       0.0022
     31  CG2       15.8750  -14.4490   88.6710 C.3    25  ILE25       0.0023
     32  CD1       18.0560  -12.5860   88.0070 C.3    25  ILE25       0.0001
     33  N         19.2140  -16.9030   86.4950 N.am   26  GLY26      -0.1940
     34  CA        20.0390  -17.1330   85.3250 C.3    26  GLY26       0.2014
     35  C         21.4920  -17.3970   85.6510 C.2    26  GLY26       0.2640
     36  O         21.8890  -17.3950   86.8150 O.2    26  GLY26      -0.2714
     37  N         22.2990  -17.6280   84.6230 N.am   27  SER27      -0.1935
     38  CA        23.6860  -17.9800   84.8600 C.3    27  SER27       0.2055
     39  C         24.6400  -17.5570   83.7570 C.2    27  SER27       0.2643
     40  O         24.5850  -18.0730   82.6460 O.2    27  SER27      -0.2714
     41  CB        23.8040  -19.4800   85.0790 C.3    27  SER27       0.2130
     42  OG        25.1170  -19.8020   85.4860 O.3    27  SER27      -0.2179
     43  N         25.5330  -16.6280   84.0750 N.am   28  GLY28      -0.1954
     44  CA        26.5870  -16.2640   83.1420 C.3    28  GLY28       0.1869
     45  C         27.9450  -16.8780   83.4590 C.2    28  GLY28       0.2309
     46  O         28.0370  -17.9630   84.0450 O.2    28  GLY28      -0.2863
     47  N         23.2360  -16.1280   89.2820 N.3    33  VAL33      -0.1245
     48  CA        22.6580  -14.8480   89.6640 C.3    33  VAL33       0.1561
     49  C         21.2270  -15.0490   90.1730 C.2    33  VAL33       0.2260
     50  O         20.3940  -15.6720   89.5080 O.2    33  VAL33      -0.2867
     51  CB        22.6490  -13.8810   88.4670 C.3    33  VAL33       0.0252
     52  CG1       21.8540  -12.6080   88.8040 C.3    33  VAL33       0.0019
     53  CG2       24.0670  -13.5210   88.1020 C.3    33  VAL33       0.0019
     54  N         17.6360  -13.3290   91.9060 N.3    35  ALA35      -0.1245
     55  CA        16.7970  -12.1860   92.2240 C.3    35  ALA35       0.1562
     56  C         16.5080  -12.2570   93.7100 C.2    35  ALA35       0.2260
     57  O         16.5280  -13.3360   94.2940 O.2    35  ALA35      -0.2867
     58  CB        15.5040  -12.2760   91.4520 C.3    35  ALA35       0.0290
     59  N         19.2240   -7.7270   92.2370 N.3    46  ALA46      -0.1245
     60  CA        19.9070   -8.9060   91.7360 C.3    46  ALA46       0.1562
     61  C         21.1610   -9.1250   92.5500 C.2    46  ALA46       0.2260
     62  O         21.8960   -8.1790   92.8440 O.2    46  ALA46      -0.2867
     63  CB        20.2630   -8.7350   90.2720 C.3    46  ALA46       0.0290
     64  N         24.5380  -11.1380   92.1410 N.3    48  LYS48      -0.1245
     65  CA        25.5050  -11.9340   91.4220 C.3    48  LYS48       0.1561
     66  C         26.5150  -12.4100   92.4450 C.2    48  LYS48       0.2260
     67  O         26.9400  -11.6300   93.2860 O.2    48  LYS48      -0.2867
     68  CB        26.1950  -11.0700   90.3550 C.3    48  LYS48       0.0271
     69  CG        27.3130  -11.7790   89.6350 C.3    48  LYS48       0.0035
     70  CD        27.5530  -11.2140   88.2560 C.3    48  LYS48       0.0206
     71  CE        27.9660   -9.7560   88.2670 C.3    48  LYS48       0.1093
     72  NZ        28.1850   -9.2990   86.8580 N.3    48  LYS48      -0.1314
     73  N         23.6870   -0.9290   83.9800 N.3    79  ILE79      -0.1245
     74  CA        23.1750   -1.4820   85.2230 C.3    79  ILE79       0.1561
     75  C         23.8800   -0.8280   86.4090 C.2    79  ILE79       0.2260
     76  O         25.0880   -0.6060   86.3620 O.2    79  ILE79      -0.2867
     77  CB        23.3830   -3.0090   85.2730 C.3    79  ILE79       0.0252
     78  CG1       22.4550   -3.6080   86.3210 C.3    79  ILE79       0.0019
     79  CG2       24.8290   -3.3330   85.5430 C.3    79  ILE79       0.0019
     80  CD1       21.0140   -3.4910   85.9310 C.3    79  ILE79       0.0001
     81  N         23.2080   -5.7160   92.0580 N.3   101  MET101     -0.1230
     82  CA        22.7010   -4.7930   91.0350 C.3   101  MET101      0.1702
     83  C         21.2140   -4.4700   91.2330 C.2   101  MET101      0.2592
     84  O         20.5340   -5.1340   92.0190 O.2   101  MET101     -0.2718
     85  CB        22.8530   -5.3940   89.6360 C.3   101  MET101      0.0401
     86  CG        24.1360   -5.0540   88.9350 C.3   101  MET101      0.0596
     87  SD        25.4750   -5.9630   89.6340 S.3   101  MET101     -0.1393
     88  CE        25.9440   -4.9000   90.9300 C.3   101  MET101      0.0692
     89  N         20.7160   -3.4750   90.4990 N.am  102  GLU102     -0.1966
     90  CA        19.2830   -3.3040   90.3190 C.3   102  GLU102      0.1733
     91  C         18.7240   -4.4590   89.4690 C.2   102  GLU102      0.2616
     92  O         19.4870   -5.2360   88.9010 O.2   102  GLU102     -0.2715
     93  CB        18.9910   -1.9430   89.6600 C.3   102  GLU102      0.0429
     94  CG        19.1850   -1.8720   88.1350 C.3   102  GLU102      0.1163
     95  CD        19.5580   -0.4670   87.6550 C.2   102  GLU102      0.3649
     96  OE1       18.9590    0.5040   88.1430 O.co2 102  GLU102     -0.2457
     97  OE2       20.4600   -0.3290   86.7980 O.co2 102  GLU102     -0.2457
     98  N         17.4020   -4.5780   89.3880 N.am  103  LEU103     -0.1963
     99  CA        16.7830   -5.7490   88.7650 C.3   103  LEU103      0.1728
    100  C         15.7030   -5.3770   87.7520 C.2   103  LEU103      0.2616
    101  O         14.9240   -4.4570   87.9790 O.2   103  LEU103     -0.2715
    102  CB        16.1620   -6.6360   89.8370 C.3   103  LEU103      0.0311
    103  CG        15.4150   -7.8960   89.4100 C.3   103  LEU103      0.0022
    104  CD1       16.4150   -9.0110   89.2120 C.3   103  LEU103      0.0001
    105  CD2       14.4040   -8.2930   90.4880 C.3   103  LEU103      0.0001
    106  N         15.6360   -6.1050   86.6420 N.am  104  MET104     -0.1963
    107  CA        14.6720   -5.7620   85.6020 C.3   104  MET104      0.1736
    108  C         13.5850   -6.8130   85.4610 C.2   104  MET104      0.2616
    109  O         13.0750   -7.2980   86.4680 O.2   104  MET104     -0.2715
    110  CB        15.4000   -5.5550   84.2830 C.3   104  MET104      0.0427
    111  CG        16.3640   -4.3750   84.3320 C.3   104  MET104      0.0599
    112  SD        15.5250   -2.8440   84.8290 S.3   104  MET104     -0.1393
    113  CE        15.2850   -2.0900   83.2470 C.3   104  MET104      0.0692
    114  N         13.2210   -7.1740   84.2340 N.am  105  ASP105     -0.1957
    115  CA        12.2090   -8.2100   84.0600 C.3   105  ASP105      0.1840
    116  C         12.5710   -9.3250   83.0830 C.2   105  ASP105      0.2622
    117  O         12.0340  -10.4280   83.1770 O.2   105  ASP105     -0.2715
    118  CB        10.8770   -7.5900   83.6430 C.3   105  ASP105      0.1450
    119  CG        10.3460   -6.6010   84.6620 C.2   105  ASP105      0.3671
    120  OD1       10.1200   -6.9880   85.8260 O.co2 105  ASP105     -0.2456
    121  OD2       10.1430   -5.4270   84.3130 O.co2 105  ASP105     -0.2456
    122  N         13.4600   -9.0640   82.1320 N.am  106  ALA106     -0.1963
    123  CA        13.8210  -10.1160   81.1910 C.3   106  ALA106      0.1728
    124  C         15.2000   -9.9680   80.5730 C.2   106  ALA106      0.2616
    125  O         15.8830   -8.9560   80.7650 O.2   106  ALA106     -0.2715
    126  CB        12.7750  -10.2060   80.0890 C.3   106  ALA106      0.0334
    127  N         15.5970  -10.9920   79.8220 N.am  107  ASN107     -0.1972
    128  CA        16.8400  -10.9600   79.0750 C.3   107  ASN107      0.1688
    129  C         16.5610  -10.4460   77.6820 C.2   107  ASN107      0.2292
    130  O         15.4970  -10.7030   77.1010 O.2   107  ASN107     -0.2864
    131  CB        17.4610  -12.3550   78.9810 C.3   107  ASN107      0.1181
    132  CG        18.9420  -12.3150   78.6050 C.2   107  ASN107      0.2629
    133  OD1       19.3100  -12.1870   77.4270 O.2   107  ASN107     -0.2716
    134  ND2       19.7990  -12.4260   79.6110 N.am  107  ASN107     -0.0877
    135  N         15.3800  -13.0360   75.2630 N.3   110  GLN110     -0.1245
    136  CA        13.9900  -13.4550   75.2070 C.3   110  GLN110      0.1566
    137  C         13.2530  -12.4390   74.3630 C.2   110  GLN110      0.2260
    138  O         12.3710  -12.7750   73.5730 O.2   110  GLN110     -0.2867
    139  CB        13.3780  -13.4960   76.6070 C.3   110  GLN110      0.0367
    140  CG        14.1800  -14.3050   77.6120 C.3   110  GLN110      0.0905
    141  CD        14.7930  -15.5420   76.9960 C.2   110  GLN110      0.2608
    142  OE1       14.0790  -16.4290   76.5240 O.2   110  GLN110     -0.2717
    143  NE2       16.1260  -15.6080   76.9870 N.am  110  GLN110     -0.0878
    144  N         22.6830  -11.6450   75.7620 N.3   148  SER148     -0.1202
    145  CA        22.4750  -12.2890   77.0540 C.3   148  SER148      0.2020
    146  C         22.9610  -11.4070   78.2030 C.2   148  SER148      0.2618
    147  O         22.5410  -11.5800   79.3540 O.2   148  SER148     -0.2717
    148  CB        23.1880  -13.6470   77.1070 C.3   148  SER148      0.2103
    149  OG        24.5990  -13.5300   76.9740 O.3   148  SER148     -0.2182
    150  N         23.8430  -10.4580   77.9090 N.am  149  ASN149     -0.1974
    151  CA        24.2950   -9.5440   78.9570 C.3   149  ASN149      0.1688
    152  C         23.5810   -8.1950   78.9320 C.2   149  ASN149      0.2292
    153  O         24.0460   -7.2090   79.4930 O.2   149  ASN149     -0.2864
    154  CB        25.8100   -9.3580   78.8820 C.3   149  ASN149      0.1181
    155  CG        26.5530  -10.4990   79.5280 C.2   149  ASN149      0.2629
    156  OD1       25.9580  -11.3010   80.2350 O.2   149  ASN149     -0.2716
    157  ND2       27.8530  -10.5850   79.2890 N.am  149  ASN149     -0.0877
    158  N         19.6730   -6.5960   79.6880 N.3   151  VAL151     -0.1245
    159  CA        18.3900   -6.9120   80.3060 C.3   151  VAL151      0.1561
    160  C         17.3910   -5.7590   80.1260 C.2   151  VAL151      0.2260
    161  O         17.7840   -4.6100   79.9120 O.2   151  VAL151     -0.2867
    162  CB        18.5870   -7.2330   81.8080 C.3   151  VAL151      0.0252
    163  CG1       19.4400   -8.4650   81.9450 C.3   151  VAL151      0.0019
    164  CG2       19.2800   -6.0840   82.5150 C.3   151  VAL151      0.0019
    165  N         24.8440   -4.9710   81.1730 N.3   161  LEU161     -0.1245
    166  CA        25.2570   -5.5030   82.4550 C.3   161  LEU161      0.1561
    167  C         26.7360   -5.3240   82.7440 C.2   161  LEU161      0.2260
    168  O         27.1310   -5.2310   83.8930 O.2   161  LEU161     -0.2867
    169  CB        24.9040   -6.9870   82.5550 C.3   161  LEU161      0.0270
    170  CG        23.4210   -7.3530   82.6990 C.3   161  LEU161      0.0019
    171  CD1       23.3360   -8.8310   82.8420 C.3   161  LEU161      0.0001
    172  CD2       22.7810   -6.6610   83.9040 C.3   161  LEU161      0.0001
@<TRIPOS>BOND
     1   138   137    2
     2   137   136    1
     3   136   135    1
     4   136   139    1
     5   144   145    1
     6   142   141    2
     7   139   140    1
     8   149   148    1
     9   143   141   am
    10   141   140    1
    11   145   148    1
    12   145   146    1
    13   130   129    2
    14   133   132    2
    15   129   128    1
    16   150   146   am
    17   150   151    1
    18   146   147    2
    19   132   131    1
    20   132   134   am
    21   154   151    1
    22   154   155    1
    23   152   151    1
    24   152   153    2
    25   131   128    1
    26   128   127    1
    27   157   155   am
    28   155   156    2
    29   158   159    1
    30   127   124   am
    31   161   160    2
    32   126   123    1
    33   160   159    1
    34   159   162    1
    35   124   125    2
    36   124   123    1
    37   165   166    1
    38   123   122    1
    39   162   163    1
    40   162   164    1
    41   122   116   am
    42   166   169    1
    43   166   167    1
    44   169   170    1
    45    40    39    2
    46   170   171    1
    47   170   172    1
    48   167   168    2
    49   116   117    2
    50   116   115    1
    51    44    45    1
    52    44    43    1
    53   113   112    1
    54    45    46    2
    55   118   115    1
    56   118   119    1
    57    39    43   am
    58    39    38    1
    59    73    74    1
    60   115   114    1
    61   114   108   am
    62   110   111    1
    63   110   107    1
    64   121   119   ar
    65   111   112    1
    66    37    38    1
    67    37    35   am
    68   119   120   ar
    69    38    41    1
    70    41    42    1
    71    74    77    1
    72    74    75    1
    73    28    27    2
    74    77    79    1
    75    77    78    1
    76    34    35    1
    77    34    33    1
    78   108   107    1
    79   108   109    2
    80   107   106    1
    81    35    36    2
    82    80    78    1
    83    27    33   am
    84    27    26    1
    85    76    75    2
    86   106   100   am
    87    97    95   ar
    88    72    71    1
    89    26    29    1
    90    26    25    1
    91    29    30    1
    92    29    31    1
    93    95    94    1
    94    95    96   ar
    95   100   101    2
    96   100    99    1
    97    30    32    1
    98    53    51    1
    99    94    93    1
   100    70    71    1
   101    70    69    1
   102    51    52    1
   103    51    48    1
   104    99    98    1
   105    99   102    1
   106    25    20   am
   107    92    91    2
   108    86    87    1
   109    86    85    1
   110   104   103    1
   111    21    20    2
   112    47    48    1
   113    98    91   am
   114   103   102    1
   115   103   105    1
   116    91    90    1
   117    50    49    2
   118    20    19    1
   119    87    88    1
   120    69    68    1
   121    85    82    1
   122    93    90    1
   123    48    49    1
   124    63    60    1
   125    90    89    1
   126    68    65    1
   127    89    83   am
   128    22    19    1
   129    22    23    1
   130    19    18    1
   131    82    83    1
   132    82    81    1
   133    23    24    1
   134    83    84    2
   135    65    64    1
   136    65    66    1
   137    58    55    1
   138    60    59    1
   139    60    61    1
   140    54    55    1
   141    18    24    1
   142    18    11   am
   143    12    11    2
   144    55    56    1
   145    66    67    2
   146    11    10    1
   147    61    62    2
   148    13    10    1
   149    13    14    1
   150    10     9    1
   151    56    57    2
   152    15    14    1
   153    15    16    1
   154    17    16    1
   155     4     3    2
   156     7     6    2
   157     3     2    1
   158     6     8   am
   159     6     5    1
   160     5     2    1
   161     2     1    1
