@<TRIPOS>MOLECULE
tmp/2zdxB00.pdb
 114 102 0 0 0
SMALL
GASTEIGER

@<TRIPOS>ATOM
      1  N        -53.4660    8.1060   20.3860 N.3   233  LEU233     -0.1245
      2  CA       -52.3280    8.8080   20.9470 C.3   233  LEU233      0.1561
      3  C        -52.7040   10.1900   21.5180 C.2   233  LEU233      0.2260
      4  O        -52.2130   10.5920   22.5840 O.2   233  LEU233     -0.2867
      5  CB       -51.2340    8.9450   19.8820 C.3   233  LEU233      0.0270
      6  CG       -50.5590    7.6460   19.4280 C.3   233  LEU233      0.0019
      7  CD1      -49.2770    7.9690   18.6850 C.3   233  LEU233      0.0001
      8  CD2      -50.2600    6.7790   20.6200 C.3   233  LEU233      0.0001
      9  N        -55.8200   10.9120   22.4750 N.3   235  LYS235     -0.1231
     10  CA       -56.6850   10.5260   23.5720 C.3   235  LYS235      0.1693
     11  C        -55.8720   10.2240   24.8200 C.2   235  LYS235      0.2592
     12  O        -56.3130   10.4930   25.9230 O.2   235  LYS235     -0.2718
     13  CB       -57.4910    9.2960   23.1700 C.3   235  LYS235      0.0285
     14  CG       -58.4350    8.7820   24.2160 C.3   235  LYS235      0.0035
     15  CD       -58.6350    7.2850   24.0580 C.3   235  LYS235      0.0206
     16  CE       -57.3960    6.5340   24.5200 C.3   235  LYS235      0.1093
     17  NZ       -56.9890    6.9770   25.8930 N.3   235  LYS235     -0.1314
     18  N        -54.6800    9.6610   24.6440 N.am  236  ASN236     -0.1960
     19  CA       -53.7840    9.4200   25.7720 C.3   236  ASN236      0.1819
     20  C        -53.0560   10.6910   26.1950 C.2   236  ASN236      0.2621
     21  O        -52.8840   10.9430   27.3850 O.2   236  ASN236     -0.2715
     22  CB       -52.7390    8.3640   25.4230 C.3   236  ASN236      0.1195
     23  CG       -53.3340    6.9940   25.2010 C.2   236  ASN236      0.2630
     24  OD1      -54.4770    6.7210   25.5850 O.2   236  ASN236     -0.2716
     25  ND2      -52.5550    6.1130   24.5680 N.am  236  ASN236     -0.0877
     26  N        -52.6150   11.4840   25.2250 N.am  237  ALA237     -0.1977
     27  CA       -51.8800   12.7020   25.5360 C.3   237  ALA237      0.1597
     28  C        -52.7220   13.7070   26.3280 C.2   237  ALA237      0.2287
     29  O        -52.2390   14.3130   27.2740 O.2   237  ALA237     -0.2864
     30  CB       -51.3710   13.3360   24.2600 C.3   237  ALA237      0.0319
     31  N        -55.5250   13.0640   28.2150 N.3   239  ARG239     -0.1231
     32  CA       -55.9680   12.5480   29.5030 C.3   239  ARG239      0.1694
     33  C        -54.8160   12.5360   30.5070 C.2   239  ARG239      0.2591
     34  O        -55.0130   12.7610   31.7070 O.2   239  ARG239     -0.2718
     35  CB       -56.5400   11.1360   29.3410 C.3   239  ARG239      0.0321
     36  CG       -55.6360   10.0320   29.8530 C.3   239  ARG239      0.0489
     37  CD       -56.3530    9.1980   30.8900 C.3   239  ARG239      0.2205
     38  NE       -57.7610    9.0480   30.5420 N.pl3 239  ARG239     -0.0865
     39  CZ       -58.2070    8.2550   29.5730 C.cat 239  ARG239      0.5346
     40  NH1      -57.3530    7.5340   28.8540 N.pl3 239  ARG239      0.1354
     41  NH2      -59.5090    8.1880   29.3180 N.pl3 239  ARG239      0.1354
     42  N        -53.6100   12.2780   30.0140 N.am  240  ALA240     -0.1980
     43  CA       -52.4420   12.2980   30.8810 C.3   240  ALA240      0.1597
     44  C        -52.2040   13.7380   31.2730 C.2   240  ALA240      0.2287
     45  O        -51.8120   14.0170   32.4010 O.2   240  ALA240     -0.2864
     46  CB       -51.2200   11.7400   30.1570 C.3   240  ALA240      0.0319
     47  N        -55.0560   15.0920   33.6570 N.3   243  GLU243     -0.1245
     48  CA       -54.9350   14.4050   34.9350 C.3   243  GLU243      0.1567
     49  C        -53.7400   14.9390   35.7170 C.2   243  GLU243      0.2260
     50  O        -53.8410   15.2230   36.9090 O.2   243  GLU243     -0.2867
     51  CB       -54.7700   12.9000   34.6960 C.3   243  GLU243      0.0388
     52  CG       -55.4360   12.0150   35.7310 C.3   243  GLU243      0.1160
     53  CD       -55.9420   10.6990   35.1430 C.2   243  GLU243      0.3649
     54  OE1      -55.1670    9.7120   35.1250 O.co2 243  GLU243     -0.2457
     55  OE2      -57.1160   10.6530   34.7020 O.co2 243  GLU243     -0.2457
     56  N        -46.3220   15.3930   25.0520 N.3   271  ASP271     -0.1239
     57  CA       -47.1540   16.0320   26.0660 C.3   271  ASP271      0.1674
     58  C        -46.4300   16.2090   27.3970 C.2   271  ASP271      0.2266
     59  O        -45.2830   15.7880   27.5580 O.2   271  ASP271     -0.2867
     60  CB       -48.4460   15.2280   26.2800 C.3   271  ASP271      0.1410
     61  CG       -48.1930   13.8340   26.8310 C.2   271  ASP271      0.3668
     62  OD1      -47.6250   13.7190   27.9290 O.co2 271  ASP271     -0.2456
     63  OD2      -48.5670   12.8430   26.1680 O.co2 271  ASP271     -0.2456
     64  N        -47.9120   15.1520   30.5160 N.3   273  GLY273     -0.1225
     65  CA       -48.7950   14.4680   31.4440 C.3   273  GLY273      0.1811
     66  C        -48.0240   13.6710   32.4860 C.2   273  GLY273      0.2280
     67  O        -48.5330   12.6790   33.0260 O.2   273  GLY273     -0.2866
     68  N        -45.8080   11.5900   32.3410 N.3   275  GLY275     -0.1210
     69  CA       -45.1590   10.3850   31.8710 C.3   275  GLY275      0.1956
     70  C        -45.4320    9.1400   32.6840 C.2   275  GLY275      0.2611
     71  O        -46.1710    9.1560   33.6660 O.2   275  GLY275     -0.2717
     72  N        -44.8290    8.0460   32.2430 N.am  276  VAL276     -0.1979
     73  CA       -44.9290    6.7630   32.9170 C.3   276  VAL276      0.1595
     74  C        -43.5260    6.1940   32.9810 C.2   276  VAL276      0.2287
     75  O        -42.7220    6.3910   32.0740 O.2   276  VAL276     -0.2864
     76  CB       -45.8050    5.7900   32.1260 C.3   276  VAL276      0.0276
     77  CG1      -47.1750    6.3940   31.9000 C.3   276  VAL276      0.0022
     78  CG2      -45.1470    5.4760   30.7980 C.3   276  VAL276      0.0022
     79  N        -48.4800   -0.8620   28.8960 N.3   284  LEU284     -0.1245
     80  CA       -49.2790   -0.0270   28.0080 C.3   284  LEU284      0.1561
     81  C        -49.5570   -0.7480   26.6940 C.2   284  LEU284      0.2260
     82  O        -50.5580   -0.4960   26.0400 O.2   284  LEU284     -0.2867
     83  CB       -48.5380    1.2950   27.7340 C.3   284  LEU284      0.0270
     84  CG       -49.1220    2.6440   28.1820 C.3   284  LEU284      0.0019
     85  CD1      -49.6720    2.5610   29.5830 C.3   284  LEU284      0.0001
     86  CD2      -48.0340    3.6980   28.1150 C.3   284  LEU284      0.0001
     87  N        -54.1270    0.7790   22.1140 N.3   290  LEU290     -0.1245
     88  CA       -52.7520    1.1430   21.7970 C.3   290  LEU290      0.1561
     89  C        -52.0170    0.0300   21.0470 C.2   290  LEU290      0.2260
     90  O        -51.3210    0.2900   20.0630 O.2   290  LEU290     -0.2867
     91  CB       -51.9880    1.4790   23.0740 C.3   290  LEU290      0.0270
     92  CG       -50.6370    2.1450   22.8410 C.3   290  LEU290      0.0019
     93  CD1      -50.8590    3.4620   22.1160 C.3   290  LEU290      0.0001
     94  CD2      -49.9360    2.3730   24.1660 C.3   290  LEU290      0.0001
     95  N        -43.3990    4.7070   21.8450 N.3   306  LEU306     -0.1245
     96  CA       -43.4800    5.6560   22.9500 C.3   306  LEU306      0.1561
     97  C        -42.1340    5.7420   23.6140 C.2   306  LEU306      0.2260
     98  O        -41.5390    4.7170   23.9190 O.2   306  LEU306     -0.2867
     99  CB       -44.4610    5.1770   24.0020 C.3   306  LEU306      0.0270
    100  CG       -45.9080    5.0660   23.5680 C.3   306  LEU306      0.0019
    101  CD1      -46.7510    4.6070   24.7630 C.3   306  LEU306      0.0001
    102  CD2      -46.3740    6.4210   23.0390 C.3   306  LEU306      0.0001
    103  N        -44.4300   12.8630   27.7760 N.3   314  THR314     -0.1218
    104  CA       -44.2810   11.6640   26.9720 C.3   314  THR314      0.1862
    105  C        -44.2130   11.9630   25.4770 C.2   314  THR314      0.2287
    106  O        -44.9360   12.8280   24.9760 O.2   314  THR314     -0.2866
    107  CB       -45.4490   10.7040   27.2230 C.3   314  THR314      0.1770
    108  OG1      -45.4320   10.2770   28.5900 O.3   314  THR314     -0.2211
    109  CG2      -45.3450    9.4880   26.3230 C.3   314  THR314      0.0375
    110  N        -44.8120   10.3170   21.7950 N.3   316  ALA316     -0.1245
    111  CA       -45.3440    9.2790   20.9190 C.3   316  ALA316      0.1562
    112  C        -44.9540    9.6080   19.4920 C.2   316  ALA316      0.2260
    113  O        -45.1100   10.7390   19.0400 O.2   316  ALA316     -0.2867
    114  CB       -46.8600    9.2080   21.0420 C.3   316  ALA316      0.0290
@<TRIPOS>BOND
     1     7     6    1
     2   113   112    2
     3     6     5    1
     4     6     8    1
     5   112   111    1
     6     5     2    1
     7    90    89    2
     8     1     2    1
     9   111   114    1
    10   111   110    1
    11     2     3    1
    12    89    88    1
    13     3     4    2
    14    88    87    1
    15    88    91    1
    16    95    96    1
    17    93    92    1
    18     9    10    1
    19    92    91    1
    20    92    94    1
    21    96    97    1
    22    96    99    1
    23   102   100    1
    24    13    10    1
    25    13    14    1
    26   100    99    1
    27   100   101    1
    28    10    11    1
    29    97    98    2
    30    15    14    1
    31    15    16    1
    32    30    27    1
    33    16    17    1
    34    25    23   am
    35    18    11   am
    36    18    19    1
    37    11    12    2
    38   106   105    2
    39    56    57    1
    40    23    22    1
    41    23    24    2
    42    26    27    1
    43    26    20   am
    44    22    19    1
    45   105   104    1
    46    27    28    1
    47    19    20    1
    48    82    81    2
    49    57    60    1
    50    57    58    1
    51    63    61   ar
    52    20    21    2
    53    60    61    1
    54   109   107    1
    55    28    29    2
    56    81    80    1
    57    61    62   ar
    58   104   107    1
    59   104   103    1
    60   107   108    1
    61    58    59    2
    62    83    80    1
    63    83    84    1
    64    80    79    1
    65    86    84    1
    66    84    85    1
    67    31    32    1
    68    40    39    1
    69    41    39    1
    70    35    32    1
    71    35    36    1
    72    32    33    1
    73    39    38    2
    74    36    37    1
    75    42    33   am
    76    42    43    1
    77    46    43    1
    78    33    34    2
    79    64    65    1
    80    38    37    1
    81    78    76    1
    82    43    44    1
    83    44    45    2
    84    65    66    1
    85    69    68    1
    86    69    70    1
    87    77    76    1
    88    75    74    2
    89    76    73    1
    90    72    70   am
    91    72    73    1
    92    66    67    2
    93    70    71    2
    94    73    74    1
    95    47    48    1
    96    51    48    1
    97    51    52    1
    98    55    53   ar
    99    48    49    1
   100    54    53   ar
   101    53    52    1
   102    49    50    2
