@<TRIPOS>MOLECULE
tmp/2zdzA00.pdb
 237 227 0 0 0
SMALL
GASTEIGER

@<TRIPOS>ATOM
      1  N          4.9010    1.9050   12.9210 N.3    14  GLY14      -0.1210
      2  CA         5.3950    1.4510   14.2170 C.3    14  GLY14       0.1956
      3  C          5.3230   -0.0520   14.4600 C.2    14  GLY14       0.2612
      4  O          5.5910   -0.5090   15.5700 O.2    14  GLY14      -0.2717
      5  N          4.9700   -0.8320   13.4370 N.am   15  GLN15      -0.1965
      6  CA         4.8120   -2.2820   13.6280 C.3    15  GLN15       0.1733
      7  C          5.7310   -3.1500   12.7630 C.2    15  GLN15       0.2617
      8  O          5.7730   -4.3690   12.9370 O.2    15  GLN15      -0.2715
      9  CB         3.3440   -2.7080   13.4730 C.3    15  GLN15       0.0408
     10  CG         2.4310   -2.1720   14.5690 C.3    15  GLN15       0.0908
     11  CD         1.0910   -2.8840   14.6310 C.2    15  GLN15       0.2608
     12  OE1        0.4720   -3.1680   13.6060 O.2    15  GLN15      -0.2717
     13  NE2        0.6290   -3.1590   15.8420 N.am   15  GLN15      -0.0878
     14  N          6.4620   -2.5200   11.8470 N.am   16  GLY16      -0.1940
     15  CA         7.4660   -3.2120   11.0460 C.3    16  GLY16       0.2014
     16  C          7.1520   -3.3220    9.5630 C.2    16  GLY16       0.2638
     17  O          6.0110   -3.5920    9.1810 O.2    16  GLY16      -0.2714
     18  N          8.1770   -3.1100    8.7390 N.am   17  TYR17      -0.1973
     19  CA         8.0850   -3.2970    7.2940 C.3    17  TYR17       0.1639
     20  C          8.3300   -4.7600    6.9470 C.2    17  TYR17       0.2290
     21  O          9.3080   -5.3620    7.4050 O.2    17  TYR17      -0.2864
     22  CB         9.1300   -2.4540    6.5660 C.3    17  TYR17       0.0560
     23  CG         8.9090   -0.9580    6.5930 C.ar   17  TYR17      -0.0198
     24  CD1        9.2910   -0.1950    7.6960 C.ar   17  TYR17      -0.0009
     25  CD2        8.3610   -0.3020    5.4960 C.ar   17  TYR17      -0.0009
     26  CE1        9.1070    1.1880    7.7130 C.ar   17  TYR17       0.0417
     27  CE2        8.1720    1.0730    5.5030 C.ar   17  TYR17       0.0417
     28  CZ         8.5480    1.8100    6.6070 C.ar   17  TYR17       0.1957
     29  OH         8.3630    3.1720    6.6010 O.3    17  TYR17      -0.2866
     30  N          9.1620   -9.7760    8.2690 N.3    33  LEU33      -0.1245
     31  CA         9.7810   -8.5260    8.7170 C.3    33  LEU33       0.1561
     32  C         11.2230   -8.3770    8.2230 C.2    33  LEU33       0.2260
     33  O         12.0400   -9.2900    8.3750 O.2    33  LEU33      -0.2867
     34  CB         9.7370   -8.4480   10.2460 C.3    33  LEU33       0.0270
     35  CG        10.4020   -7.2650   10.9500 C.3    33  LEU33       0.0019
     36  CD1        9.6360   -5.9850   10.6740 C.3    33  LEU33       0.0001
     37  CD2       10.4850   -7.5340   12.4490 C.3    33  LEU33       0.0001
     38  N         14.6460   -6.9590    8.7820 N.3    35  ASP35      -0.1239
     39  CA        15.4070   -6.5250    9.9580 C.3    35  ASP35       0.1674
     40  C         16.9230   -6.5240    9.7180 C.2    35  ASP35       0.2266
     41  O         17.5590   -7.5770    9.7390 O.2    35  ASP35      -0.2867
     42  CB        15.0520   -7.4170   11.1610 C.3    35  ASP35       0.1410
     43  CG        15.6680   -6.9340   12.4740 C.2    35  ASP35       0.3668
     44  OD1       16.1730   -5.7930   12.5490 O.co2  35  ASP35      -0.2456
     45  OD2       15.6310   -7.7080   13.4520 O.co2  35  ASP35      -0.2456
     46  N         19.0090   -5.3790   11.7940 N.3    37  GLY37      -0.1210
     47  CA        19.6370   -5.4220   13.1180 C.3    37  GLY37       0.1956
     48  C         19.6680   -6.8030   13.7570 C.2    37  GLY37       0.2613
     49  O         19.9090   -6.9300   14.9580 O.2    37  GLY37      -0.2717
     50  N         19.4160   -7.8360   12.9560 N.am   38  SER38      -0.1938
     51  CA        19.4740   -9.2290   13.4170 C.3    38  SER38       0.2055
     52  C         19.8460  -10.1260   12.2420 C.2    38  SER38       0.2644
     53  O         19.8960   -9.6630   11.1040 O.2    38  SER38      -0.2714
     54  CB        18.1480   -9.6690   14.0550 C.3    38  SER38       0.2130
     55  OG        17.1210   -9.8120   13.0830 O.3    38  SER38      -0.2179
     56  N         20.1050  -11.4050   12.5140 N.am   39  SER39      -0.1935
     57  CA        20.7160  -12.2740   11.5120 C.3    39  SER39       0.2055
     58  C         20.0770  -13.6520   11.3160 C.2    39  SER39       0.2643
     59  O         20.6470  -14.5090   10.6260 O.2    39  SER39      -0.2714
     60  CB        22.2090  -12.4170   11.8040 C.3    39  SER39       0.2130
     61  OG        22.8070  -11.1420   11.9020 O.3    39  SER39      -0.2179
     62  N         18.9030  -13.8660   11.9070 N.am   40  ASN40      -0.1971
     63  CA        18.1700  -15.1240   11.7280 C.3    40  ASN40       0.1688
     64  C         16.9510  -14.9960   10.8260 C.2    40  ASN40       0.2292
     65  O         16.1980  -14.0200   10.9180 O.2    40  ASN40      -0.2864
     66  CB        17.7260  -15.6960   13.0780 C.3    40  ASN40       0.1181
     67  CG        18.8680  -16.3010   13.8600 C.2    40  ASN40       0.2629
     68  OD1       19.7180  -15.5880   14.3930 O.2    40  ASN40      -0.2716
     69  ND2       18.8900  -17.6260   13.9400 N.am   40  ASN40      -0.0877
     70  N         16.0340  -18.0300   22.3000 N.3    72  VAL72      -0.1245
     71  CA        16.3930  -16.6080   22.2820 C.3    72  VAL72       0.1561
     72  C         15.5910  -15.8030   23.3200 C.2    72  VAL72       0.2260
     73  O         14.5200  -15.2760   23.0100 O.2    72  VAL72      -0.2867
     74  CB        16.2320  -15.9880   20.8560 C.3    72  VAL72       0.0252
     75  CG1       16.7010  -14.5320   20.8290 C.3    72  VAL72       0.0019
     76  CG2       17.0010  -16.8020   19.8190 C.3    72  VAL72       0.0019
     77  N         15.1350  -12.4470   25.8070 N.3    74  TYR74      -0.1241
     78  CA        15.4630  -11.0170   25.8290 C.3    74  TYR74       0.1605
     79  C         14.6100  -10.3160   26.8870 C.2    74  TYR74       0.2264
     80  O         13.6340  -10.8870   27.3760 O.2    74  TYR74      -0.2867
     81  CB        15.2650  -10.3780   24.4440 C.3    74  TYR74       0.0534
     82  CG        13.9440  -10.7130   23.7820 C.ar   74  TYR74      -0.0201
     83  CD1       13.8100  -11.8530   22.9900 C.ar   74  TYR74      -0.0009
     84  CD2       12.8290   -9.8890   23.9440 C.ar   74  TYR74      -0.0009
     85  CE1       12.6040  -12.1680   22.3830 C.ar   74  TYR74       0.0417
     86  CE2       11.6150  -10.1980   23.3370 C.ar   74  TYR74       0.0417
     87  CZ        11.5130  -11.3410   22.5600 C.ar   74  TYR74       0.1957
     88  OH        10.3190  -11.6580   21.9570 O.3    74  TYR74      -0.2866
     89  N         11.8880   -8.9300   28.3130 N.3    76  GLN76      -0.1245
     90  CA        10.4210   -8.8220   28.1280 C.3    76  GLN76       0.1566
     91  C          9.7670  -10.1220   27.6400 C.2    76  GLN76       0.2260
     92  O          8.5750  -10.3490   27.8810 O.2    76  GLN76      -0.2867
     93  CB        10.0040   -7.6310   27.2440 C.3    76  GLN76       0.0367
     94  CG        10.0050   -7.8910   25.7320 C.3    76  GLN76       0.0905
     95  CD        10.3090   -6.6400   24.9220 C.2    76  GLN76       0.2608
     96  OE1       10.5760   -5.5720   25.4790 O.2    76  GLN76      -0.2717
     97  NE2       10.2770   -6.7700   23.5970 N.am   76  GLN76      -0.0878
     98  N         11.7380  -16.0190   22.0450 N.3    79  TRP79      -0.1241
     99  CA        11.2640  -16.9690   21.0470 C.3    79  TRP79       0.1605
    100  C         12.1310  -18.2250   21.0520 C.2    79  TRP79       0.2264
    101  O         13.3350  -18.1750   21.3310 O.2    79  TRP79      -0.2867
    102  CB        11.1260  -16.3550   19.6450 C.3    79  TRP79       0.0550
    103  CG        12.3890  -15.8490   19.0010 C.ar   79  TRP79       0.0003
    104  CD1       12.9160  -14.5930   19.1110 C.ar   79  TRP79       0.0946
    105  CD2       13.2540  -16.5680   18.1110 C.ar   79  TRP79       0.0152
    106  NE1       14.0620  -14.4910   18.3620 N.ar   79  TRP79      -0.2442
    107  CE2       14.2930  -15.6870   17.7350 C.ar   79  TRP79       0.0810
    108  CE3       13.2590  -17.8750   17.6010 C.ar   79  TRP79       0.0012
    109  CZ2       15.3270  -16.0680   16.8700 C.ar   79  TRP79       0.0191
    110  CZ3       14.2890  -18.2550   16.7460 C.ar   79  TRP79       0.0001
    111  CH2       15.3090  -17.3520   16.3900 C.ar   79  TRP79       0.0015
    112  N          5.7160  -12.0960   23.6320 N.3   110  LYS110     -0.1231
    113  CA         6.0580  -10.7330   23.2190 C.3   110  LYS110      0.1693
    114  C          7.0020  -10.6840   22.0070 C.2   110  LYS110      0.2592
    115  O          7.8160   -9.7650   21.8900 O.2   110  LYS110     -0.2718
    116  CB         6.6290   -9.9160   24.3950 C.3   110  LYS110      0.0285
    117  CG         5.6030   -9.4920   25.4550 C.3   110  LYS110      0.0035
    118  CD         4.6740   -8.3740   24.9680 C.3   110  LYS110      0.0206
    119  CE         5.3920   -7.0300   24.8460 C.3   110  LYS110      0.1093
    120  NZ         4.4830   -5.9480   24.3570 N.3   110  LYS110     -0.1314
    121  N          6.8890  -11.6670   21.1110 N.am  111  PHE111     -0.1976
    122  CA         7.6360  -11.6330   19.8550 C.3   111  PHE111      0.1639
    123  C          6.7640  -11.0730   18.7350 C.2   111  PHE111      0.2290
    124  O          7.0480  -10.0000   18.1920 O.2   111  PHE111     -0.2864
    125  CB         8.2020  -13.0150   19.4840 C.3   111  PHE111      0.0560
    126  CG         9.0210  -13.0180   18.2130 C.ar  111  PHE111     -0.0200
    127  CD1       10.3030  -12.4760   18.1910 C.ar  111  PHE111     -0.0042
    128  CD2        8.5050  -13.5550   17.0360 C.ar  111  PHE111     -0.0042
    129  CE1       11.0610  -12.4720   17.0200 C.ar  111  PHE111     -0.0003
    130  CE2        9.2550  -13.5520   15.8560 C.ar  111  PHE111     -0.0003
    131  CZ        10.5370  -13.0130   15.8520 C.ar  111  PHE111     -0.0000
    132  N          3.5050   -9.3600   16.9170 N.3   113  ILE113     -0.1245
    133  CA         2.7900   -8.1300   17.2420 C.3   113  ILE113      0.1561
    134  C          1.3720   -8.1930   16.6890 C.2   113  ILE113      0.2260
    135  O          1.1710   -8.4660   15.4970 O.2   113  ILE113     -0.2867
    136  CB         3.5350   -6.8730   16.7140 C.3   113  ILE113      0.0252
    137  CG1        4.9150   -6.7560   17.3730 C.3   113  ILE113      0.0019
    138  CG2        2.7020   -5.6020   16.9390 C.3   113  ILE113      0.0019
    139  CD1        5.7640   -5.5910   16.8680 C.3   113  ILE113      0.0001
    140  N          2.7140   -9.5340    9.8390 N.3   118  TRP118     -0.1241
    141  CA         3.8720  -10.3730    9.5170 C.3   118  TRP118      0.1605
    142  C          3.9470  -11.6260   10.3870 C.2   118  TRP118      0.2264
    143  O          3.4730  -11.6310   11.5250 O.2   118  TRP118     -0.2867
    144  CB         5.1990   -9.5870    9.5150 C.3   118  TRP118      0.0550
    145  CG         5.5230   -8.7720   10.7540 C.ar  118  TRP118      0.0003
    146  CD1        5.3420   -7.4280   10.9150 C.ar  118  TRP118      0.0946
    147  CD2        6.1350   -9.2410   11.9710 C.ar  118  TRP118      0.0152
    148  NE1        5.7760   -7.0340   12.1590 N.ar  118  TRP118     -0.2442
    149  CE2        6.2690   -8.1230   12.8280 C.ar  118  TRP118      0.0810
    150  CE3        6.5670  -10.4960   12.4250 C.ar  118  TRP118      0.0012
    151  CZ2        6.8200   -8.2210   14.1150 C.ar  118  TRP118      0.0191
    152  CZ3        7.1170  -10.5950   13.7060 C.ar  118  TRP118      0.0001
    153  CH2        7.2380   -9.4620   14.5340 C.ar  118  TRP118      0.0015
    154  N         10.6140  -13.1610   10.5840 N.3   121  ILE121     -0.1245
    155  CA        11.6500  -12.1280   10.5450 C.3   121  ILE121      0.1561
    156  C         12.7890  -12.5330    9.6100 C.2   121  ILE121      0.2260
    157  O         13.2350  -13.6880    9.6160 O.2   121  ILE121     -0.2867
    158  CB        12.1890  -11.8060   11.9720 C.3   121  ILE121      0.0252
    159  CG1       13.0500  -10.5420   11.9660 C.3   121  ILE121      0.0019
    160  CG2       12.9620  -12.9950   12.5630 C.3   121  ILE121      0.0019
    161  CD1       13.4390  -10.0730   13.3460 C.3   121  ILE121      0.0001
    162  N         26.3450  -12.4320   14.8040 N.3   129  ILE129     -0.1245
    163  CA        25.2590  -12.2590   15.7740 C.3   129  ILE129      0.1561
    164  C         24.0580  -13.1850   15.5470 C.2   129  ILE129      0.2260
    165  O         22.9920  -12.9850   16.1420 O.2   129  ILE129     -0.2867
    166  CB        24.7970  -10.7760   15.8680 C.3   129  ILE129      0.0252
    167  CG1       24.3470  -10.2500   14.5000 C.3   129  ILE129      0.0019
    168  CG2       25.9110   -9.9080   16.4500 C.3   129  ILE129      0.0019
    169  CD1       23.4540   -9.0200   14.5600 C.3   129  ILE129      0.0001
    170  N         21.8460  -16.5910   15.9390 N.3   131  ARG131     -0.1245
    171  CA        21.5550  -17.5130   17.0310 C.3   131  ARG131      0.1563
    172  C         21.3290  -18.9210   16.4660 C.2   131  ARG131      0.2260
    173  O         20.6840  -19.0650   15.4250 O.2   131  ARG131     -0.2867
    174  CB        20.3190  -17.0450   17.8080 C.3   131  ARG131      0.0307
    175  CG        20.3750  -15.5950   18.3060 C.3   131  ARG131      0.0489
    176  CD        21.5730  -15.3440   19.2190 C.3   131  ARG131      0.2205
    177  NE        21.4350  -14.0930   19.9610 N.pl3 131  ARG131     -0.0865
    178  CZ        20.8450  -13.9810   21.1480 C.cat 131  ARG131      0.5346
    179  NH1       20.3290  -15.0480   21.7470 N.pl3 131  ARG131      0.1354
    180  NH2       20.7650  -12.7970   21.7380 N.pl3 131  ARG131      0.1354
    181  N         26.5560   -6.3250   13.4220 N.3   195  TYR195     -0.1241
    182  CA        25.4780   -5.4230   13.0420 C.3   195  TYR195      0.1605
    183  C         26.0110   -4.6250   11.8590 C.2   195  TYR195      0.2264
    184  O         27.1830   -4.7550   11.5030 O.2   195  TYR195     -0.2867
    185  CB        25.1330   -4.4820   14.1990 C.3   195  TYR195      0.0534
    186  CG        24.5880   -5.1880   15.4180 C.ar  195  TYR195     -0.0201
    187  CD1       23.2190   -5.4210   15.5550 C.ar  195  TYR195     -0.0009
    188  CD2       25.4400   -5.6280   16.4350 C.ar  195  TYR195     -0.0009
    189  CE1       22.7130   -6.0770   16.6680 C.ar  195  TYR195      0.0417
    190  CE2       24.9410   -6.2860   17.5610 C.ar  195  TYR195      0.0417
    191  CZ        23.5790   -6.5060   17.6670 C.ar  195  TYR195      0.1957
    192  OH        23.0720   -7.1530   18.7670 O.3   195  TYR195     -0.2866
    193  N         24.4630    1.7220   14.9990 N.3   223  ILE223     -0.1245
    194  CA        24.0350    0.7880   13.9480 C.3   223  ILE223      0.1561
    195  C         22.9090    1.3500   13.0710 C.2   223  ILE223      0.2260
    196  O         22.1860    2.2710   13.4790 O.2   223  ILE223     -0.2867
    197  CB        23.6220   -0.6060   14.5240 C.3   223  ILE223      0.0252
    198  CG1       22.3120   -0.5220   15.3240 C.3   223  ILE223      0.0019
    199  CG2       24.7580   -1.2080   15.3520 C.3   223  ILE223      0.0019
    200  CD1       21.7400   -1.8850   15.7390 C.3   223  ILE223      0.0001
    201  N         19.4780    0.1860   11.4390 N.3   225  ASP225     -0.1225
    202  CA        18.5620   -0.8810   11.8340 C.3   225  ASP225      0.1805
    203  C         17.1170   -0.6560   11.3830 C.2   225  ASP225      0.2598
    204  O         16.3850    0.1170   11.9890 O.2   225  ASP225     -0.2718
    205  CB        18.6290   -1.0660   13.3570 C.3   225  ASP225      0.1424
    206  CG        17.7850   -2.2280   13.8530 C.2   225  ASP225      0.3668
    207  OD1       17.3060   -3.0410   13.0280 O.co2 225  ASP225     -0.2456
    208  OD2       17.6070   -2.3280   15.0870 O.co2 225  ASP225     -0.2456
    209  N         16.7110   -1.3630   10.3280 N.am  226  SER226     -0.1938
    210  CA        15.3260   -1.3160    9.8500 C.3   226  SER226      0.2055
    211  C         14.3350   -1.9560   10.8400 C.2   226  SER226      0.2644
    212  O         13.1220   -1.7560   10.7320 O.2   226  SER226     -0.2714
    213  CB        15.2130   -1.9670    8.4670 C.3   226  SER226      0.2130
    214  OG        15.4770   -3.3600    8.5250 O.3   226  SER226     -0.2179
    215  N         14.8570   -2.7090   11.8060 N.am  227  GLY227     -0.1939
    216  CA        14.0290   -3.3900   12.8160 C.3   227  GLY227      0.2014
    217  C         13.7290   -2.5730   14.0650 C.2   227  GLY227      0.2640
    218  O         13.2090   -3.0990   15.0530 O.2   227  GLY227     -0.2714
    219  N         14.0430   -1.2820   14.0150 N.am  228  THR228     -0.1936
    220  CA        13.8050   -0.3690   15.1340 C.3   228  THR228      0.2028
    221  C         13.0180    0.8350   14.6270 C.2   228  THR228      0.2642
    222  O         13.3570    1.4110   13.5950 O.2   228  THR228     -0.2714
    223  CB        15.1450    0.0700   15.7990 C.3   228  THR228      0.1808
    224  OG1       15.7600   -1.0670   16.4180 O.3   228  THR228     -0.2208
    225  CG2       14.9300    1.1490   16.8600 C.3   228  THR228      0.0379
    226  N         11.9550    1.1920   15.3430 N.am  229  THR229     -0.1950
    227  CA        11.1250    2.3430   14.9850 C.3   229  THR229      0.1897
    228  C         11.8860    3.6650   15.1250 C.2   229  THR229      0.2313
    229  O         11.9670    4.4490   14.1780 O.2   229  THR229     -0.2863
    230  CB         9.8430    2.4130   15.8590 C.3   229  THR229      0.1794
    231  OG1        9.1860    1.1410   15.8620 O.3   229  THR229     -0.2208
    232  CG2        8.8850    3.4660   15.3350 C.3   229  THR229      0.0378
    233  N         13.9060    3.4160   11.7620 N.3   322  ALA322     -0.1245
    234  CA        13.0100    3.8680   10.6890 C.3   322  ALA322      0.1562
    235  C         12.9580    5.3920   10.5690 C.2   322  ALA322      0.2260
    236  O         12.9380    5.9270    9.4540 O.2   322  ALA322     -0.2867
    237  CB        11.6100    3.2900   10.8820 C.3   322  ALA322      0.0290
@<TRIPOS>BOND
     1    25    27   ar
     2    25    23   ar
     3    27    28   ar
     4    22    23    1
     5    22    19    1
     6    23    24   ar
     7    29    28    1
     8    28    26   ar
     9    20    19    1
    10    20    21    2
    11    19    18    1
    12    24    26   ar
    13    32    33    2
    14    32    31    1
    15    30    31    1
    16   213   214    1
    17   213   210    1
    18    31    34    1
    19    18    16   am
    20    38    39    1
    21    17    16    2
    22   236   235    2
    23   144   141    1
    24   144   145    1
    25   141   140    1
    26   141   142    1
    27    16    15    1
    28   156   157    2
    29   156   155    1
    30    40    41    2
    31    40    39    1
    32   210   209    1
    33   210   211    1
    34    39    42    1
    35    34    35    1
    36   209   203   am
    37   142   143    2
    38   155   154    1
    39   155   158    1
    40   235   234    1
    41    59    58    2
    42    36    35    1
    43   234   237    1
    44   234   233    1
    45   212   211    2
    46   145   146   ar
    47   145   147   ar
    48    64    65    2
    49    64    63    1
    50   211   215   am
    51   146   148   ar
    52    35    37    1
    53    15    14    1
    54    53    52    2
    55    42    43    1
    56    58    57    1
    57    58    62   am
    58   203   202    1
    59   203   204    2
    60   201   202    1
    61   184   183    2
    62    57    60    1
    63    57    56    1
    64    63    62    1
    65    63    66    1
    66    46    47    1
    67    60    61    1
    68   215   216    1
    69   202   205    1
    70    14     7   am
    71   183   182    1
    72   159   158    1
    73   159   161    1
    74   147   150   ar
    75   147   149   ar
    76   158   160    1
    77   148   149   ar
    78    52    56   am
    79    52    51    1
    80   150   152   ar
    81    43    44   ar
    82    43    45   ar
    83     7     8    2
    84     7     6    1
    85   216   217    1
    86   149   151   ar
    87     1     2    1
    88    50    51    1
    89    50    48   am
    90   207   206   ar
    91   182   181    1
    92   182   185    1
    93   195   196    2
    94   195   194    1
    95    66    67    1
    96    55    54    1
    97    47    48    1
    98   205   206    1
    99    51    54    1
   100     5     6    1
   101     5     3   am
   102     9     6    1
   103     9    10    1
   104   222   221    2
   105    12    11    2
   106   152   153   ar
   107    48    49    2
   108   206   208   ar
   109    67    69   am
   110    67    68    2
   111   194   197    1
   112   194   193    1
   113   219   217   am
   114   219   220    1
   115   217   218    2
   116   151   153   ar
   117   229   228    2
   118   185   186    1
   119     2     3    1
   120     3     4    2
   121   167   169    1
   122   167   166    1
   123   197   198    1
   124   197   199    1
   125    10    11    1
   126   221   220    1
   127   221   226   am
   128    11    13   am
   129   162   163    1
   130   227   228    1
   131   227   226    1
   132   227   230    1
   133   220   223    1
   134   198   200    1
   135   232   230    1
   136   186   187   ar
   137   186   188   ar
   138   173   172    2
   139   135   134    2
   140   164   163    1
   141   164   165    2
   142   187   189   ar
   143   163   166    1
   144   223   224    1
   145   223   225    1
   146   131   130   ar
   147   131   129   ar
   148   130   128   ar
   149   230   231    1
   150   166   168    1
   151   170   171    1
   152   111   110   ar
   153   111   109   ar
   154   188   190   ar
   155   172   171    1
   156   189   191   ar
   157   134   133    1
   158   136   138    1
   159   136   133    1
   160   136   137    1
   161   110   108   ar
   162   139   137    1
   163   109   107   ar
   164   132   133    1
   165   129   127   ar
   166   171   174    1
   167   128   126   ar
   168   190   191   ar
   169   108   105   ar
   170   191   192    1
   171   107   105   ar
   172   107   106   ar
   173   174   175    1
   174   105   103   ar
   175   127   126   ar
   176   124   123    2
   177   126   125    1
   178   175   176    1
   179   106   104   ar
   180   123   122    1
   181   103   104   ar
   182   103   102    1
   183   176   177    1
   184   125   122    1
   185   102    99    1
   186    76    74    1
   187   122   121    1
   188   177   178    2
   189    75    74    1
   190    74    71    1
   191    99   100    1
   192    99    98    1
   193   100   101    2
   194   121   114   am
   195   178   180    1
   196   178   179    1
   197   115   114    2
   198    88    87    1
   199   114   113    1
   200    71    70    1
   201    71    72    1
   202    85    87   ar
   203    85    83   ar
   204    87    86   ar
   205    83    82   ar
   206    73    72    2
   207   113   112    1
   208   113   116    1
   209    86    84   ar
   210    97    95   am
   211    82    84   ar
   212    82    81    1
   213   120   119    1
   214   116   117    1
   215    81    78    1
   216   119   118    1
   217    95    96    2
   218    95    94    1
   219   118   117    1
   220    94    93    1
   221    77    78    1
   222    78    79    1
   223    79    80    2
   224    93    90    1
   225    91    92    2
   226    91    90    1
   227    90    89    1
