@<TRIPOS>MOLECULE
tmp/2ze1A00.pdb
 216 207 0 0 0
SMALL
GASTEIGER

@<TRIPOS>ATOM
      1  N          4.4260   -0.3120   12.4470 N.3    10  GLN10      -0.1231
      2  CA         4.4850   -1.6800   12.9570 C.3    10  GLN10       0.1698
      3  C          5.5350   -2.5180   12.2290 C.2    10  GLN10       0.2593
      4  O          5.5990   -3.7440   12.3870 O.2    10  GLN10      -0.2718
      5  CB         3.1130   -2.3330   12.8550 C.3    10  GLN10       0.0381
      6  CG         2.8030   -3.2380   14.0180 C.3    10  GLN10       0.0905
      7  CD         1.4230   -2.9960   14.5780 C.2    10  GLN10       0.2608
      8  OE1        1.2530   -2.8790   15.7910 O.2    10  GLN10      -0.2717
      9  NE2        0.4280   -2.8980   13.6990 N.am   10  GLN10      -0.0878
     10  N          6.3620   -1.8430   11.4370 N.am   11  GLY11      -0.1942
     11  CA         7.4680   -2.4920   10.7570 C.3    11  GLY11       0.2014
     12  C          7.1920   -2.6940    9.2910 C.2    11  GLY11       0.2638
     13  O          6.0370   -2.7170    8.8690 O.2    11  GLY11      -0.2714
     14  N          8.2660   -2.8470    8.5210 N.am   12  TYR12      -0.1973
     15  CA         8.1830   -3.0890    7.0820 C.3    12  TYR12       0.1639
     16  C          8.3870   -4.5600    6.7600 C.2    12  TYR12       0.2290
     17  O          9.3630   -5.1730    7.1900 O.2    12  TYR12      -0.2864
     18  CB         9.2320   -2.2610    6.3430 C.3    12  TYR12       0.0560
     19  CG         8.9740   -0.7820    6.4070 C.ar   12  TYR12      -0.0198
     20  CD1        9.4260   -0.0220    7.4880 C.ar   12  TYR12      -0.0009
     21  CD2        8.2570   -0.1400    5.3990 C.ar   12  TYR12      -0.0009
     22  CE1        9.1870    1.3390    7.5550 C.ar   12  TYR12       0.0417
     23  CE2        8.0120    1.2230    5.4560 C.ar   12  TYR12       0.0417
     24  CZ         8.4830    1.9540    6.5330 C.ar   12  TYR12       0.1957
     25  OH         8.2410    3.3010    6.5920 O.3    12  TYR12      -0.2866
     26  N          9.0630   -9.5510    8.1530 N.3    28  LEU28      -0.1245
     27  CA         9.6980   -8.2870    8.5130 C.3    28  LEU28       0.1561
     28  C         11.1250   -8.1910    7.9700 C.2    28  LEU28       0.2260
     29  O         11.9280   -9.1120    8.1210 O.2    28  LEU28      -0.2867
     30  CB         9.7050   -8.1130   10.0320 C.3    28  LEU28       0.0270
     31  CG        10.1810   -6.7700   10.6010 C.3    28  LEU28       0.0019
     32  CD1        9.1300   -5.6800   10.4400 C.3    28  LEU28       0.0001
     33  CD2       10.5360   -6.9410   12.0620 C.3    28  LEU28       0.0001
     34  N         14.5370   -7.0170    8.5270 N.3    30  ASP30      -0.1239
     35  CA        15.3070   -6.6220    9.6990 C.3    30  ASP30       0.1674
     36  C         16.8250   -6.5910    9.5100 C.2    30  ASP30       0.2266
     37  O         17.4760   -7.6290    9.5350 O.2    30  ASP30      -0.2867
     38  CB        14.9280   -7.5110   10.8900 C.3    30  ASP30       0.1410
     39  CG        15.5660   -7.0600   12.1720 C.2    30  ASP30       0.3668
     40  OD1       16.0620   -5.9110   12.2400 O.co2  30  ASP30      -0.2456
     41  OD2       15.5690   -7.8590   13.1170 O.co2  30  ASP30      -0.2456
     42  N         18.8950   -5.3930   11.6170 N.3    32  GLY32      -0.1210
     43  CA        19.5150   -5.4330   12.9370 C.3    32  GLY32       0.1956
     44  C         19.5630   -6.8110   13.5740 C.2    32  GLY32       0.2613
     45  O         19.8210   -6.9340   14.7630 O.2    32  GLY32      -0.2717
     46  N         19.2970   -7.8490   12.7900 N.am   33  SER33      -0.1938
     47  CA        19.4570   -9.2330   13.2440 C.3    33  SER33       0.2055
     48  C         19.8210  -10.1000   12.0430 C.2    33  SER33       0.2644
     49  O         19.8660   -9.5990   10.9160 O.2    33  SER33      -0.2714
     50  CB        18.2020   -9.7500   13.9570 C.3    33  SER33       0.2130
     51  OG        17.0820   -9.7710   13.0930 O.3    33  SER33      -0.2179
     52  N         20.0860  -11.3870   12.2820 N.am   34  SER34      -0.1935
     53  CA        20.6580  -12.2620   11.2530 C.3    34  SER34       0.2055
     54  C         20.0090  -13.6340   11.1000 C.2    34  SER34       0.2643
     55  O         20.5130  -14.4670   10.3380 O.2    34  SER34      -0.2714
     56  CB        22.1470  -12.4410   11.5060 C.3    34  SER34       0.2130
     57  OG        22.7300  -11.1860   11.7410 O.3    34  SER34      -0.2179
     58  N         18.9040  -13.8740   11.8060 N.am   35  ASN35      -0.1971
     59  CA        18.1560  -15.1110   11.6250 C.3    35  ASN35       0.1688
     60  C         16.9800  -14.9310   10.6840 C.2    35  ASN35       0.2292
     61  O         16.3250  -13.8810   10.6730 O.2    35  ASN35      -0.2864
     62  CB        17.6540  -15.6740   12.9570 C.3    35  ASN35       0.1181
     63  CG        18.7580  -16.2870   13.7860 C.2    35  ASN35       0.2629
     64  OD1       19.4960  -15.5820   14.4750 O.2    35  ASN35      -0.2716
     65  ND2       18.8650  -17.6150   13.7420 N.am   35  ASN35      -0.0877
     66  N         16.1200  -18.0590   22.2310 N.3    67  VAL67      -0.1245
     67  CA        16.4030  -16.6240   22.1370 C.3    67  VAL67       0.1561
     68  C         15.5920  -15.8100   23.1590 C.2    67  VAL67       0.2260
     69  O         14.5160  -15.3050   22.8320 O.2    67  VAL67      -0.2867
     70  CB        16.1630  -16.0840   20.6940 C.3    67  VAL67       0.0252
     71  CG1       16.6010  -14.6250   20.5760 C.3    67  VAL67       0.0019
     72  CG2       16.8920  -16.9330   19.6670 C.3    67  VAL67       0.0019
     73  N         15.1480  -12.3940   25.6490 N.3    69  TYR69      -0.1241
     74  CA        15.4870  -10.9670   25.6850 C.3    69  TYR69       0.1605
     75  C         14.6330  -10.2700   26.7460 C.2    69  TYR69       0.2264
     76  O         13.6830  -10.8640   27.2700 O.2    69  TYR69      -0.2867
     77  CB        15.2940  -10.3110   24.3060 C.3    69  TYR69       0.0534
     78  CG        14.0370  -10.7470   23.5820 C.ar   69  TYR69      -0.0201
     79  CD1       12.8110  -10.1300   23.8350 C.ar   69  TYR69      -0.0009
     80  CD2       14.0720  -11.7810   22.6440 C.ar   69  TYR69      -0.0009
     81  CE1       11.6560  -10.5320   23.1780 C.ar   69  TYR69       0.0417
     82  CE2       12.9240  -12.1860   21.9850 C.ar   69  TYR69       0.0417
     83  CZ        11.7230  -11.5570   22.2560 C.ar   69  TYR69       0.1957
     84  OH        10.5830  -11.9540   21.6070 O.3    69  TYR69      -0.2866
     85  N         11.9390   -8.8750   28.1220 N.3    71  GLN71      -0.1245
     86  CA        10.4680   -8.7680   27.9780 C.3    71  GLN71       0.1566
     87  C          9.8300  -10.1260   27.6360 C.2    71  GLN71       0.2260
     88  O          8.7860  -10.4930   28.1950 O.2    71  GLN71      -0.2867
     89  CB        10.0280   -7.6770   26.9790 C.3    71  GLN71       0.0367
     90  CG        10.2200   -8.0170   25.4950 C.3    71  GLN71       0.0905
     91  CD        10.5620   -6.8040   24.6490 C.2    71  GLN71       0.2608
     92  OE1       10.6780   -5.6850   25.1550 O.2    71  GLN71      -0.2717
     93  NE2       10.7350   -7.0240   23.3480 N.am   71  GLN71      -0.0878
     94  N         11.8110  -16.1040   21.9930 N.3    74  TRP74      -0.1241
     95  CA        11.3150  -17.0850   21.0290 C.3    74  TRP74       0.1605
     96  C         12.1770  -18.3510   21.0170 C.2    74  TRP74       0.2264
     97  O         13.4010  -18.2900   21.1670 O.2    74  TRP74      -0.2867
     98  CB        11.1020  -16.5020   19.6150 C.3    74  TRP74       0.0550
     99  CG        12.3210  -15.9590   18.9020 C.ar   74  TRP74       0.0003
    100  CD1       12.7710  -14.6680   18.9190 C.ar   74  TRP74       0.0946
    101  CD2       13.2120  -16.6810   18.0360 C.ar   74  TRP74       0.0152
    102  NE1       13.8940  -14.5440   18.1340 N.ar   74  TRP74      -0.2442
    103  CE2       14.1870  -15.7630   17.5800 C.ar   74  TRP74       0.0810
    104  CE3       13.2890  -18.0140   17.6100 C.ar   74  TRP74       0.0012
    105  CZ2       15.2270  -16.1350   16.7160 C.ar   74  TRP74       0.0191
    106  CZ3       14.3250  -18.3830   16.7530 C.ar   74  TRP74       0.0001
    107  CH2       15.2780  -17.4470   16.3180 C.ar   74  TRP74       0.0015
    108  N          6.9450  -11.5050   21.0790 N.3   106  PHE106     -0.1241
    109  CA         7.6910  -11.4760   19.8170 C.3   106  PHE106      0.1605
    110  C          6.8060  -10.9810   18.6710 C.2   106  PHE106      0.2264
    111  O          7.1510  -10.0170   17.9840 O.2   106  PHE106     -0.2867
    112  CB         8.2930  -12.8520   19.4980 C.3   106  PHE106      0.0534
    113  CG         9.0590  -12.9000   18.1970 C.ar  106  PHE106     -0.0203
    114  CD1       10.3070  -12.3010   18.0840 C.ar  106  PHE106     -0.0042
    115  CD2        8.5330  -13.5540   17.0900 C.ar  106  PHE106     -0.0042
    116  CE1       11.0140  -12.3460   16.8870 C.ar  106  PHE106     -0.0003
    117  CE2        9.2330  -13.5990   15.8860 C.ar  106  PHE106     -0.0003
    118  CZ        10.4750  -13.0010   15.7900 C.ar  106  PHE106     -0.0000
    119  N          3.4870   -9.2550   16.9540 N.3   108  ILE108     -0.1245
    120  CA         2.7140   -8.0500   17.2400 C.3   108  ILE108      0.1561
    121  C          1.2960   -8.1960   16.7070 C.2   108  ILE108      0.2260
    122  O          1.0840   -8.6940   15.5910 O.2   108  ILE108     -0.2867
    123  CB         3.3820   -6.7730   16.6450 C.3   108  ILE108      0.0252
    124  CG1        4.8620   -6.6660   17.0530 C.3   108  ILE108      0.0019
    125  CG2        2.5970   -5.5090   17.0300 C.3   108  ILE108      0.0019
    126  CD1        5.1100   -6.3460   18.5360 C.3   108  ILE108      0.0001
    127  N          2.7700   -9.4370    9.7480 N.3   113  TRP113     -0.1241
    128  CA         3.8870  -10.3150    9.4050 C.3   113  TRP113      0.1605
    129  C          3.9490  -11.5550   10.2960 C.2   113  TRP113      0.2264
    130  O          3.5290  -11.5290   11.4570 O.2   113  TRP113     -0.2867
    131  CB         5.2310   -9.5620    9.3370 C.3   113  TRP113      0.0550
    132  CG         5.5250   -8.6670   10.4950 C.ar  113  TRP113      0.0003
    133  CD1        5.2720   -7.3280   10.5770 C.ar  113  TRP113      0.0946
    134  CD2        6.1430   -9.0340   11.7350 C.ar  113  TRP113      0.0152
    135  NE1        5.6800   -6.8400   11.7930 N.ar  113  TRP113     -0.2442
    136  CE2        6.2220   -7.8630   12.5250 C.ar  113  TRP113      0.0810
    137  CE3        6.6320  -10.2380   12.2610 C.ar  113  TRP113      0.0012
    138  CZ2        6.7730   -7.8590   13.8110 C.ar  113  TRP113      0.0191
    139  CZ3        7.1740  -10.2350   13.5460 C.ar  113  TRP113      0.0001
    140  CH2        7.2400   -9.0510   14.3040 C.ar  113  TRP113      0.0015
    141  N         10.5340  -13.0590   10.5050 N.3   116  ILE116     -0.1245
    142  CA        11.5800  -12.0360   10.4630 C.3   116  ILE116      0.1561
    143  C         12.7170  -12.4530    9.5390 C.2   116  ILE116      0.2260
    144  O         13.1670  -13.6020    9.5740 O.2   116  ILE116     -0.2867
    145  CB        12.1110  -11.7170   11.8840 C.3   116  ILE116      0.0252
    146  CG1       11.4550  -10.4530   12.4150 C.3   116  ILE116      0.0019
    147  CG2       13.6100  -11.5120   11.9110 C.3   116  ILE116      0.0019
    148  CD1       10.2340  -10.7090   13.2430 C.3   116  ILE116      0.0001
    149  N         26.2590  -12.4620   14.6260 N.3   124  ILE124     -0.1245
    150  CA        25.2000  -12.2880   15.6100 C.3   124  ILE124      0.1561
    151  C         24.0180  -13.2650   15.4460 C.2   124  ILE124      0.2260
    152  O         22.9950  -13.1310   16.1260 O.2   124  ILE124     -0.2867
    153  CB        24.7340  -10.8010   15.6850 C.3   124  ILE124      0.0252
    154  CG1       24.3430  -10.2700   14.3000 C.3   124  ILE124      0.0019
    155  CG2       25.8310   -9.9440   16.2930 C.3   124  ILE124      0.0019
    156  CD1       23.4270   -9.0830   14.3330 C.3   124  ILE124      0.0001
    157  N         21.8390  -16.7120   15.7870 N.3   126  ARG126     -0.1245
    158  CA        21.5830  -17.7270   16.8040 C.3   126  ARG126      0.1563
    159  C         21.4880  -19.1140   16.1590 C.2   126  ARG126      0.2260
    160  O         20.9960  -19.2330   15.0360 O.2   126  ARG126     -0.2867
    161  CB        20.3000  -17.4030   17.5730 C.3   126  ARG126      0.0307
    162  CG        20.2710  -16.0160   18.2210 C.3   126  ARG126      0.0489
    163  CD        21.4870  -15.7520   19.1070 C.3   126  ARG126      0.2205
    164  NE        21.4270  -14.4260   19.7150 N.pl3 126  ARG126     -0.0865
    165  CZ        20.9560  -14.1860   20.9370 C.cat 126  ARG126      0.5346
    166  NH1       20.5160  -15.1880   21.6900 N.pl3 126  ARG126      0.1354
    167  NH2       20.9280  -12.9450   21.4080 N.pl3 126  ARG126      0.1354
    168  N         26.5060   -6.4340   13.2400 N.3   187  TYR187     -0.1241
    169  CA        25.4060   -5.5430   12.8930 C.3   187  TYR187      0.1605
    170  C         25.9270   -4.7240   11.7290 C.2   187  TYR187      0.2264
    171  O         27.1040   -4.8260   11.3880 O.2   187  TYR187     -0.2867
    172  CB        25.0850   -4.6160   14.0600 C.3   187  TYR187      0.0534
    173  CG        24.5640   -5.3120   15.2970 C.ar  187  TYR187     -0.0201
    174  CD1       23.1980   -5.5170   15.4750 C.ar  187  TYR187     -0.0009
    175  CD2       25.4360   -5.7550   16.2980 C.ar  187  TYR187     -0.0009
    176  CE1       22.7080   -6.1550   16.6100 C.ar  187  TYR187      0.0417
    177  CE2       24.9540   -6.3930   17.4390 C.ar  187  TYR187      0.0417
    178  CZ        23.5900   -6.5880   17.5850 C.ar  187  TYR187      0.1957
    179  OH        23.0980   -7.2140   18.7060 O.3   187  TYR187     -0.2866
    180  N         19.4220    0.0870   11.5720 N.3   217  ASP217     -0.1225
    181  CA        18.4800   -0.9910   11.8850 C.3   217  ASP217      0.1805
    182  C         17.0470   -0.7240   11.4210 C.2   217  ASP217      0.2598
    183  O         16.3080    0.0270   12.0580 O.2   217  ASP217     -0.2718
    184  CB        18.5230   -1.2860   13.3840 C.3   217  ASP217      0.1424
    185  CG        17.5540   -2.3700   13.8050 C.2   217  ASP217      0.3668
    186  OD1       17.0260   -3.1030   12.9400 O.co2 217  ASP217     -0.2456
    187  OD2       17.3310   -2.4910   15.0310 O.co2 217  ASP217     -0.2456
    188  N         16.6590   -1.3730   10.3210 N.am  218  SER218     -0.1938
    189  CA        15.3040   -1.2610    9.7710 C.3   218  SER218      0.2055
    190  C         14.2170   -1.8380   10.6940 C.2   218  SER218      0.2644
    191  O         13.0460   -1.4690   10.5760 O.2   218  SER218     -0.2714
    192  CB        15.2350   -1.9220    8.3950 C.3   218  SER218      0.2130
    193  OG        15.4500   -3.3200    8.4990 O.3   218  SER218     -0.2179
    194  N         14.6050   -2.7340   11.6050 N.am  219  GLY219     -0.1939
    195  CA        13.6760   -3.3620   12.5600 C.3   219  GLY219      0.2014
    196  C         13.4000   -2.5770   13.8370 C.2   219  GLY219      0.2640
    197  O         12.7570   -3.0900   14.7650 O.2   219  GLY219     -0.2714
    198  N         13.8840   -1.3370   13.8900 N.am  220  THR220     -0.1936
    199  CA        13.6170   -0.4180   15.0060 C.3   220  THR220      0.2028
    200  C         12.9180    0.8120   14.4530 C.2   220  THR220      0.2642
    201  O         13.3260    1.3350   13.4310 O.2   220  THR220     -0.2714
    202  CB        14.9360   -0.0010   15.7220 C.3   220  THR220      0.1808
    203  OG1       15.5620   -1.1570   16.2870 O.3   220  THR220     -0.2208
    204  CG2       14.6880    1.0110   16.8400 C.3   220  THR220      0.0379
    205  N         11.8580    1.2640   15.1150 N.am  221  THR221     -0.1950
    206  CA        11.1380    2.4680   14.6860 C.3   221  THR221      0.1897
    207  C         12.0110    3.7140   14.9020 C.2   221  THR221      0.2313
    208  O         12.3300    4.4410   13.9650 O.2   221  THR221     -0.2863
    209  CB         9.7890    2.6400   15.4590 C.3   221  THR221      0.1794
    210  OG1        9.1360    1.3720   15.6050 O.3   221  THR221     -0.2208
    211  CG2        8.8530    3.5900   14.7310 C.3   221  THR221      0.0378
    212  N         13.9530    3.0500   11.5450 N.3   314  ALA314     -0.1245
    213  CA        13.0590    3.4320   10.4430 C.3   314  ALA314      0.1562
    214  C         12.8590    4.9430   10.2830 C.2   314  ALA314      0.2260
    215  O         12.9660    5.4670    9.1720 O.2   314  ALA314     -0.2867
    216  CB        11.7030    2.7150   10.5790 C.3   314  ALA314      0.0290
@<TRIPOS>BOND
     1    21    23   ar
     2    21    19   ar
     3    23    24   ar
     4    18    19    1
     5    18    15    1
     6    19    20   ar
     7    24    25    1
     8    24    22   ar
     9    16    15    1
    10    16    17    2
    11    15    14    1
    12    20    22   ar
    13    28    29    2
    14    28    27    1
    15    26    27    1
    16   192   193    1
    17   192   189    1
    18    27    30    1
    19    14    12   am
    20    34    35    1
    21    13    12    2
    22   215   214    2
    23    12    11    1
    24   131   128    1
    25   131   132    1
    26   128   127    1
    27   128   129    1
    28    36    37    2
    29    36    35    1
    30   143   144    2
    31   143   142    1
    32    35    38    1
    33   189   188    1
    34   189   190    1
    35    30    31    1
    36   214   213    1
    37   129   130    2
    38   188   182   am
    39    55    54    2
    40    32    31    1
    41   213   216    1
    42   213   212    1
    43   142   141    1
    44   142   145    1
    45   132   133   ar
    46   132   134   ar
    47   191   190    2
    48   133   135   ar
    49    31    33    1
    50    61    60    2
    51    60    59    1
    52   190   194   am
    53    11    10    1
    54    38    39    1
    55    49    48    2
    56    54    53    1
    57    54    58   am
    58    53    56    1
    59    53    52    1
    60   171   170    2
    61   182   181    1
    62   182   183    2
    63    10     3   am
    64    56    57    1
    65   180   181    1
    66   194   195    1
    67    42    43    1
    68    59    58    1
    69    59    62    1
    70   170   169    1
    71   134   137   ar
    72   134   136   ar
    73   135   136   ar
    74   145   147    1
    75   145   146    1
    76   181   184    1
    77    48    52   am
    78    48    47    1
    79    39    40   ar
    80    39    41   ar
    81     3     4    2
    82     3     2    1
    83   137   139   ar
    84   146   148    1
    85     1     2    1
    86   136   138   ar
    87   195   196    1
    88    46    47    1
    89    46    44   am
    90     5     2    1
    91     5     6    1
    92   169   168    1
    93   169   172    1
    94    43    44    1
    95   186   185   ar
    96    62    63    1
    97    51    50    1
    98    47    50    1
    99   184   185    1
   100   201   200    2
   101   139   140   ar
   102    44    45    2
   103     9     7   am
   104    65    63   am
   105    63    64    2
   106   185   187   ar
   107   138   140   ar
   108   196   198   am
   109   196   197    2
   110   198   199    1
   111   208   207    2
   112     6     7    1
   113   172   173    1
   114   154   156    1
   115   154   153    1
   116   200   199    1
   117   200   205   am
   118     7     8    2
   119   149   150    1
   120   206   207    1
   121   206   205    1
   122   206   209    1
   123   211   209    1
   124   199   202    1
   125   160   159    2
   126   173   174   ar
   127   173   175   ar
   128   151   150    1
   129   151   152    2
   130   209   210    1
   131   174   176   ar
   132   122   121    2
   133   150   153    1
   134   153   155    1
   135   202   203    1
   136   202   204    1
   137   157   158    1
   138   118   117   ar
   139   118   116   ar
   140   117   115   ar
   141   159   158    1
   142   175   177   ar
   143   107   105   ar
   144   107   106   ar
   145   176   178   ar
   146   123   125    1
   147   123   124    1
   148   123   120    1
   149   121   120    1
   150   105   103   ar
   151   106   104   ar
   152   158   161    1
   153   116   114   ar
   154   119   120    1
   155   124   126    1
   156   115   113   ar
   157   177   178   ar
   158   161   162    1
   159   103   101   ar
   160   103   102   ar
   161   178   179    1
   162   104   101   ar
   163   111   110    2
   164   101    99   ar
   165   114   113   ar
   166   102   100   ar
   167   113   112    1
   168   162   163    1
   169   110   109    1
   170    99   100   ar
   171    99    98    1
   172   163   164    1
   173   112   109    1
   174    98    95    1
   175    72    70    1
   176   164   165    2
   177   109   108    1
   178    71    70    1
   179    70    67    1
   180   165   167    1
   181   165   166    1
   182    96    95    1
   183    96    97    2
   184    95    94    1
   185    84    83    1
   186    82    83   ar
   187    82    80   ar
   188    67    66    1
   189    67    68    1
   190    83    81   ar
   191    80    78   ar
   192    69    68    2
   193    81    79   ar
   194    93    91   am
   195    78    79   ar
   196    78    77    1
   197    77    74    1
   198    91    92    2
   199    91    90    1
   200    90    89    1
   201    73    74    1
   202    74    75    1
   203    75    76    2
   204    89    86    1
   205    87    86    1
   206    87    88    2
   207    86    85    1
