@<TRIPOS>MOLECULE
tmp/2ze5A00.pdb
 143 136 0 0 0
SMALL
GASTEIGER

@<TRIPOS>ATOM
      1  N         61.0680   59.6450   19.5510 N.3    33  ASP33      -0.1225
      2  CA        61.7590   58.3920   19.3910 C.3    33  ASP33       0.1805
      3  C         61.2550   57.4160   20.4580 C.2    33  ASP33       0.2598
      4  O         61.3170   57.7500   21.6310 O.2    33  ASP33      -0.2718
      5  CB        63.3280   58.6350   19.4910 C.3    33  ASP33       0.1424
      6  CG        64.1180   57.4340   19.0090 C.2    33  ASP33       0.3668
      7  OD1       64.0780   56.3580   19.6230 O.co2  33  ASP33      -0.2456
      8  OD2       64.8000   57.5280   17.9920 O.co2  33  ASP33      -0.2456
      9  N         60.8240   56.2050   20.0710 N.am   34  ARG34      -0.1966
     10  CA        60.4200   55.1870   21.0220 C.3    34  ARG34       0.1729
     11  C         61.6140   54.4650   21.5920 C.2    34  ARG34       0.2616
     12  O         61.6250   54.1770   22.7610 O.2    34  ARG34      -0.2715
     13  CB        59.4660   54.1210   20.3670 C.3    34  ARG34       0.0348
     14  CG        58.3910   54.6990   19.4610 C.3    34  ARG34       0.0492
     15  CD        57.5280   53.6750   18.7830 C.3    34  ARG34       0.2205
     16  NE        58.3920   52.8580   17.9600 N.pl3  34  ARG34      -0.0865
     17  CZ        58.4790   51.5420   18.0420 C.cat  34  ARG34       0.5346
     18  NH1       57.6710   50.8710   18.8830 N.pl3  34  ARG34       0.1354
     19  NH2       59.3100   50.8930   17.2030 N.pl3  34  ARG34       0.1354
     20  N         62.5980   54.1180   20.7650 N.am   35  VAL35      -0.1963
     21  CA        63.7250   53.2800   21.1960 C.3    35  VAL35       0.1727
     22  C         64.5560   54.0240   22.2610 C.2    35  VAL35       0.2616
     23  O         65.0100   53.4250   23.2820 O.2    35  VAL35      -0.2715
     24  CB        64.4750   52.7280   19.9570 C.3    35  VAL35       0.0290
     25  CG1       65.8420   52.1440   20.2670 C.3    35  VAL35       0.0023
     26  CG2       63.5760   51.5900   19.2750 C.3    35  VAL35       0.0023
     27  N         64.6760   55.3500   22.0950 N.am   36  GLN36      -0.1977
     28  CA        65.4510   56.1200   23.0580 C.3    36  GLN36       0.1601
     29  C         64.7850   56.2010   24.4160 C.2    36  GLN36       0.2287
     30  O         65.4250   56.7570   25.3660 O.2    36  GLN36      -0.2864
     31  CB        65.7180   57.5250   22.5560 C.3    36  GLN36       0.0394
     32  CG        66.6490   57.5820   21.3390 C.3    36  GLN36       0.0908
     33  CD        66.9470   59.0450   20.8960 C.2    36  GLN36       0.2608
     34  OE1       66.6090   59.9570   21.5610 O.2    36  GLN36      -0.2717
     35  NE2       67.6170   59.2160   19.7990 N.am   36  GLN36      -0.0878
     36  N         73.5150   53.4220   21.8290 N.3    44  GLY44      -0.1210
     37  CA        73.2260   52.8600   20.5450 C.3    44  GLY44       0.1956
     38  C         71.9020   53.4140   19.9990 C.2    44  GLY44       0.2612
     39  O         71.7280   53.4830   18.7990 O.2    44  GLY44      -0.2717
     40  N         70.9350   53.7440   20.8350 N.am   45  SER45      -0.1952
     41  CA        69.7030   54.3210   20.2830 C.3    45  SER45       0.1924
     42  C         69.8500   55.7870   19.7730 C.2    45  SER45       0.2314
     43  O         68.8990   56.3280   19.1970 O.2    45  SER45      -0.2863
     44  CB        68.5280   54.2270   21.3350 C.3    45  SER45       0.2116
     45  OG        68.7620   55.0950   22.3890 O.3    45  SER45      -0.2180
     46  N         60.0730   47.7560   23.6250 N.3    70  ILE70      -0.1245
     47  CA        60.0510   49.1420   23.1140 C.3    70  ILE70       0.1561
     48  C         58.6380   49.7190   23.1760 C.2    70  ILE70       0.2260
     49  O         57.6690   49.0310   22.8480 O.2    70  ILE70      -0.2867
     50  CB        60.5250   49.1450   21.6970 C.3    70  ILE70       0.0252
     51  CG1       61.8470   48.3350   21.5740 C.3    70  ILE70       0.0019
     52  CG2       60.5380   50.5710   21.1590 C.3    70  ILE70       0.0019
     53  CD1       63.0630   48.9990   22.2380 C.3    70  ILE70       0.0001
     54  N         63.0040   60.6810   14.5540 N.3    98  GLY98      -0.1210
     55  CA        62.7020   59.8970   13.3370 C.3    98  GLY98       0.1956
     56  C         61.8950   58.6190   13.5170 C.2    98  GLY98       0.2613
     57  O         62.0620   57.6370   12.7460 O.2    98  GLY98      -0.2717
     58  N         61.0470   58.5600   14.5360 N.am   99  SER99      -0.1938
     59  CA        60.2670   57.3370   14.6900 C.3    99  SER99       0.2055
     60  C         59.1970   57.3250   13.6240 C.2    99  SER99       0.2643
     61  O         58.3430   58.2010   13.6100 O.2    99  SER99      -0.2714
     62  CB        59.5830   57.3050   16.0330 C.3    99  SER99       0.2130
     63  OG        58.5990   56.3330   16.0540 O.3    99  SER99      -0.2179
     64  N         59.2520   56.3670   12.7090 N.am  100  ILE100     -0.1963
     65  CA        58.3220   56.3390   11.6220 C.3   100  ILE100      0.1727
     66  C         56.9540   56.1560   12.2340 C.2   100  ILE100      0.2616
     67  O         56.0550   56.9520   11.9590 O.2   100  ILE100     -0.2715
     68  CB        58.6260   55.1150   10.6450 C.3   100  ILE100      0.0290
     69  CG1       59.9030   55.3550    9.8130 C.3   100  ILE100      0.0022
     70  CG2       57.3900   54.7000    9.7660 C.3   100  ILE100      0.0023
     71  CD1       60.4920   54.0800    9.3820 C.3   100  ILE100      0.0001
     72  N         56.8010   55.1450   13.0900 N.am  101  SER101     -0.1950
     73  CA        55.4810   54.8230   13.5960 C.3   101  SER101      0.1924
     74  C         54.8590   55.9710   14.4130 C.2   101  SER101      0.2314
     75  O         53.6600   56.2540   14.2560 O.2   101  SER101     -0.2863
     76  CB        55.4600   53.4560   14.3120 C.3   101  SER101      0.2116
     77  OG        56.2380   53.4340   15.4770 O.3   101  SER101     -0.2180
     78  N         65.7960   43.2260   17.1280 N.3   171  ASP171     -0.1225
     79  CA        64.8950   44.0780   16.3200 C.3   171  ASP171      0.1805
     80  C         65.2790   45.5810   16.3830 C.2   171  ASP171      0.2598
     81  O         64.4910   46.4460   16.0110 O.2   171  ASP171     -0.2718
     82  CB        63.4050   43.9040   16.6440 C.3   171  ASP171      0.1424
     83  CG        62.8120   42.5420   16.1530 C.2   171  ASP171      0.3668
     84  OD1       61.9100   41.9870   16.8630 O.co2 171  ASP171     -0.2456
     85  OD2       63.2260   41.9970   15.0920 O.co2 171  ASP171     -0.2456
     86  N         66.4880   45.8800   16.8270 N.am  172  ILE172     -0.1966
     87  CA        66.9700   47.2450   16.9360 C.3   172  ILE172      0.1727
     88  C         68.2500   47.5170   16.0880 C.2   172  ILE172      0.2616
     89  O         69.1970   46.6840   16.0270 O.2   172  ILE172     -0.2715
     90  CB        67.1400   47.6590   18.4340 C.3   172  ILE172      0.0290
     91  CG1       65.8130   47.5440   19.1860 C.3   172  ILE172      0.0022
     92  CG2       67.6890   49.1400   18.6310 C.3   172  ILE172      0.0023
     93  CD1       66.0180   47.3540   20.6980 C.3   172  ILE172      0.0001
     94  N         68.2510   48.6670   15.3790 N.am  173  ASP173     -0.1971
     95  CA        69.3490   48.9780   14.4850 C.3   173  ASP173      0.1709
     96  C         70.6860   49.1050   15.2320 C.2   173  ASP173      0.2293
     97  O         70.7570   49.5460   16.3630 O.2   173  ASP173     -0.2864
     98  CB        69.0070   50.1730   13.5580 C.3   173  ASP173      0.1436
     99  CG        67.7900   49.8650   12.6020 C.2   173  ASP173      0.3671
    100  OD1       67.5100   48.6760   12.1390 O.co2 173  ASP173     -0.2456
    101  OD2       67.1020   50.8390   12.2750 O.co2 173  ASP173     -0.2456
    102  N         71.0670   44.7510   16.0270 N.3   176  ARG176     -0.1245
    103  CA        70.8530   43.6080   15.0920 C.3   176  ARG176      0.1563
    104  C         72.1580   43.3800   14.3270 C.2   176  ARG176      0.2260
    105  O         72.6720   42.2590   14.2560 O.2   176  ARG176     -0.2867
    106  CB        69.7370   43.9540   14.1070 C.3   176  ARG176      0.0307
    107  CG        69.4300   42.8540   13.0410 C.3   176  ARG176      0.0489
    108  CD        68.4040   43.3200   11.9960 C.3   176  ARG176      0.2205
    109  NE        67.2950   44.0670   12.6380 N.pl3 176  ARG176     -0.0865
    110  CZ        67.1670   45.4040   12.6020 C.cat 176  ARG176      0.5346
    111  NH1       68.0540   46.1820   11.9740 N.pl3 176  ARG176      0.1354
    112  NH2       66.1510   45.9780   13.2160 N.pl3 176  ARG176      0.1354
    113  N         72.1730   51.3830    8.8410 N.3   211  TYR211     -0.1241
    114  CA        71.5430   52.6920    9.0410 C.3   211  TYR211      0.1605
    115  C         70.9730   53.2220    7.7190 C.2   211  TYR211      0.2264
    116  O         69.8790   53.8100    7.6780 O.2   211  TYR211     -0.2867
    117  CB        72.5310   53.6750    9.6450 C.3   211  TYR211      0.0534
    118  CG        72.7490   53.4800   11.1240 C.ar  211  TYR211     -0.0201
    119  CD1       72.1080   52.4230   11.8320 C.ar  211  TYR211     -0.0009
    120  CD2       73.6390   54.2860   11.8040 C.ar  211  TYR211     -0.0009
    121  CE1       72.3360   52.1750   13.2080 C.ar  211  TYR211      0.0417
    122  CE2       73.8810   54.1040   13.1760 C.ar  211  TYR211      0.0417
    123  CZ        73.2390   53.0330   13.8760 C.ar  211  TYR211      0.1957
    124  OH        73.4750   52.8980   15.2430 O.3   211  TYR211     -0.2866
    125  N         67.7910   51.5900    7.0930 N.3   214  HIS214     -0.1241
    126  CA        66.7610   52.2420    7.8830 C.3   214  HIS214      0.1621
    127  C         66.3560   53.6520    7.3650 C.2   214  HIS214      0.2264
    128  O         65.1560   53.9750    7.3340 O.2   214  HIS214     -0.2867
    129  CB        67.1620   52.2820    9.3630 C.3   214  HIS214      0.0745
    130  CG        66.0880   52.8440   10.2470 C.ar  214  HIS214      0.0817
    131  ND1       64.8750   52.2090   10.4320 N.ar  214  HIS214     -0.2268
    132  CD2       66.0300   54.0030   10.9450 C.ar  214  HIS214      0.1154
    133  CE1       64.1210   52.9600   11.2120 C.ar  214  HIS214      0.1986
    134  NE2       64.7930   54.0590   11.5170 N.ar  214  HIS214     -0.2212
    135  N         62.7400   55.1970    6.2660 N.3   218  GLN218     -0.1245
    136  CA        62.2150   56.4020    6.8350 C.3   218  GLN218      0.1566
    137  C         61.6320   57.2660    5.7140 C.2   218  GLN218      0.2260
    138  O         60.5440   57.8230    5.8530 O.2   218  GLN218     -0.2867
    139  CB        63.2650   57.1100    7.7160 C.3   218  GLN218      0.0367
    140  CG        63.4320   56.4340    9.0810 C.3   218  GLN218      0.0905
    141  CD        64.6470   56.9330    9.8930 C.2   218  GLN218      0.2608
    142  OE1       65.8080   56.9420    9.4080 O.2   218  GLN218     -0.2717
    143  NE2       64.3860   57.3520   11.1410 N.am  218  GLN218     -0.0878
@<TRIPOS>BOND
     1   137   138    2
     2   137   136    1
     3   135   136    1
     4   136   139    1
     5   125   126    1
     6   128   127    2
     7   127   126    1
     8   116   115    2
     9   139   140    1
    10   115   114    1
    11   126   129    1
    12   113   114    1
    13   114   117    1
    14   140   141    1
    15   129   130    1
    16    71    69    1
    17   142   141    2
    18   117   118    1
    19    70    68    1
    20    69    68    1
    21   141   143   am
    22   130   131   ar
    23   130   132   ar
    24   131   133   ar
    25    68    65    1
    26   132   134   ar
    27   118   120   ar
    28   118   119   ar
    29   133   134   ar
    30    65    66    1
    31    65    64    1
    32   120   122   ar
    33   119   121   ar
    34    67    66    2
    35   111   110    1
    36   108   109    1
    37   108   107    1
    38   100    99   ar
    39    66    72   am
    40   101    99   ar
    41    99    98    1
    42   110   109    2
    43   110   112    1
    44    64    60   am
    45    57    56    2
    46   107   106    1
    47    72    73    1
    48   122   123   ar
    49   121   123   ar
    50    55    56    1
    51    55    54    1
    52    56    58   am
    53    98    95    1
    54    73    76    1
    55    73    74    1
    56    61    60    2
    57    60    59    1
    58   123   124    1
    59   106   103    1
    60   105   104    2
    61    75    74    2
    62    76    77    1
    63   104   103    1
    64    95    96    1
    65    95    94    1
    66    58    59    1
    67    59    62    1
    68    85    83   ar
    69   103   102    1
    70    96    97    2
    71    94    88   am
    72    81    80    2
    73    89    88    2
    74    62    63    1
    75    88    87    1
    76    83    82    1
    77    83    84   ar
    78    79    80    1
    79    79    82    1
    80    79    78    1
    81    80    86   am
    82    86    87    1
    83    87    90    1
    84    19    17    1
    85    16    17    2
    86    16    15    1
    87     8     6   ar
    88    17    18    1
    89    90    92    1
    90    90    91    1
    91    15    14    1
    92    39    38    2
    93     6     5    1
    94     6     7   ar
    95    91    93    1
    96    43    42    2
    97    26    24    1
    98     2     5    1
    99     2     1    1
   100     2     3    1
   101    14    13    1
   102    42    41    1
   103    35    33   am
   104    24    25    1
   105    24    21    1
   106    38    37    1
   107    38    40   am
   108     9     3   am
   109     9    10    1
   110    41    40    1
   111    41    44    1
   112    13    10    1
   113     3     4    2
   114    37    36    1
   115    20    21    1
   116    20    11   am
   117    33    32    1
   118    33    34    2
   119    10    11    1
   120    52    50    1
   121    21    22    1
   122    44    45    1
   123    32    31    1
   124    51    50    1
   125    51    53    1
   126    11    12    2
   127    50    47    1
   128    27    22   am
   129    27    28    1
   130    22    23    2
   131    31    28    1
   132    49    48    2
   133    28    29    1
   134    47    48    1
   135    47    46    1
   136    29    30    2
