@<TRIPOS>MOLECULE
tmp/2ze6A00.pdb
 163 154 0 0 0
SMALL
GASTEIGER

@<TRIPOS>ATOM
      1  N         65.4790   61.3160    8.4360 N.3     9  PRO9       -0.2102
      2  CA        66.2450   60.0400    8.6450 C.3     9  PRO9        0.1504
      3  C         67.3400   60.0490    9.7440 C.2     9  PRO9        0.2576
      4  O         67.8820   61.0960   10.1050 O.2     9  PRO9       -0.2718
      5  CB        66.9350   59.8300    7.2660 C.3     9  PRO9        0.0282
      6  CG        66.2940   60.6530    6.3540 C.3     9  PRO9        0.0208
      7  CD        65.8080   61.8980    7.1260 C.3     9  PRO9        0.0893
      8  N         67.7350   58.8600   10.2020 N.am   10  THR10      -0.1939
      9  CA        68.9060   58.7060   11.0300 C.3    10  THR10       0.2028
     10  C         70.1650   59.3530   10.4480 C.2    10  THR10       0.2642
     11  O         70.3230   59.3900    9.2220 O.2    10  THR10      -0.2714
     12  CB        69.1070   57.1980   11.2700 C.3    10  THR10       0.1808
     13  OG1       70.1520   57.0090   12.2260 O.3    10  THR10      -0.2208
     14  CG2       69.3860   56.4960    9.9890 C.3    10  THR10       0.0379
     15  N         71.0590   59.8450   11.3140 N.am   11  CYS11      -0.1953
     16  CA        72.3280   60.5080   10.9400 C.3    11  CYS11       0.1843
     17  C         72.1240   61.6960    9.9900 C.2    11  CYS11       0.2626
     18  O         72.9010   61.9440    9.0560 O.2    11  CYS11      -0.2714
     19  CB        73.4320   59.5450   10.4690 C.3    11  CYS11       0.0997
     20  SG        73.4500   57.8540   11.3600 S.3    11  CYS11      -0.0797
     21  N         71.0730   62.4580   10.2450 N.am   12  SER12      -0.1936
     22  CA        70.8040   63.6980    9.5150 C.3    12  SER12       0.2055
     23  C         71.1550   64.9500   10.2650 C.2    12  SER12       0.2644
     24  O         70.7560   66.0690    9.8210 O.2    12  SER12      -0.2714
     25  CB        69.3220   63.7840    9.3030 C.3    12  SER12       0.2130
     26  OG        69.0390   63.2250    8.0640 O.3    12  SER12      -0.2179
     27  N         71.7700   64.8160   11.4500 N.am   13  GLY13      -0.1939
     28  CA        72.1320   66.0450   12.2340 C.3    13  GLY13       0.2014
     29  C         70.9730   66.6930   13.0060 C.2    13  GLY13       0.2639
     30  O         71.1750   67.6860   13.6550 O.2    13  GLY13      -0.2714
     31  N         69.8010   66.0380   13.0330 N.am   14  LYS14      -0.1963
     32  CA        68.5510   66.5230   13.7180 C.3    14  LYS14       0.1728
     33  C         68.7550   66.9180   15.1860 C.2    14  LYS14       0.2616
     34  O         68.3740   68.0130   15.6190 O.2    14  LYS14      -0.2715
     35  CB        67.4510   65.4160   13.6600 C.3    14  LYS14       0.0311
     36  CG        66.8570   65.0050   12.3220 C.3    14  LYS14       0.0038
     37  CD        65.7640   63.9070   12.5640 C.3    14  LYS14       0.0206
     38  CE        66.3280   62.4470   12.5440 C.3    14  LYS14       0.1093
     39  NZ        67.1280   62.3170   13.6710 N.3    14  LYS14      -0.1314
     40  N         69.3630   66.0140   15.9540 N.am   15  THR15      -0.1951
     41  CA        69.6640   66.2360   17.3570 C.3    15  THR15       0.1897
     42  C         70.4790   67.5030   17.5980 C.2    15  THR15       0.2313
     43  O         70.1660   68.2390   18.5000 O.2    15  THR15      -0.2863
     44  CB        70.3820   65.0090   17.9790 C.3    15  THR15       0.1794
     45  OG1       69.5270   63.8400   17.8590 O.3    15  THR15      -0.2208
     46  CG2       70.6750   65.2770   19.4870 C.3    15  THR15       0.0378
     47  N         61.1380   59.6180   19.5460 N.3    33  ASP33      -0.1239
     48  CA        61.8500   58.3820   19.3500 C.3    33  ASP33       0.1674
     49  C         61.4110   57.4090   20.4220 C.2    33  ASP33       0.2266
     50  O         61.4170   57.7990   21.5660 O.2    33  ASP33      -0.2867
     51  CB        63.3890   58.7070   19.4190 C.3    33  ASP33       0.1410
     52  CG        64.2450   57.5080   18.9950 C.2    33  ASP33       0.3668
     53  OD1       64.1300   56.3700   19.5800 O.co2  33  ASP33      -0.2456
     54  OD2       65.1170   57.6950   18.1210 O.co2  33  ASP33      -0.2456
     55  N         64.9080   55.4270   22.0320 N.3    36  GLN36      -0.1245
     56  CA        65.5870   56.2090   23.0580 C.3    36  GLN36       0.1566
     57  C         64.9420   56.1960   24.4390 C.2    36  GLN36       0.2260
     58  O         65.5790   56.7100   25.3720 O.2    36  GLN36      -0.2867
     59  CB        65.7910   57.6700   22.5930 C.3    36  GLN36       0.0367
     60  CG        66.5570   57.7150   21.3150 C.3    36  GLN36       0.0905
     61  CD        67.1420   59.0390   20.9720 C.2    36  GLN36       0.2608
     62  OE1       66.8180   60.0000   21.5360 O.2    36  GLN36      -0.2717
     63  NE2       67.9660   59.0640   19.9450 N.am   36  GLN36      -0.0878
     64  N         73.6620   53.2440   21.8190 N.3    44  GLY44      -0.1210
     65  CA        73.2760   52.7150   20.5500 C.3    44  GLY44       0.1956
     66  C         72.0070   53.3440   19.9850 C.2    44  GLY44       0.2613
     67  O         71.8360   53.4470   18.7720 O.2    44  GLY44      -0.2717
     68  N         71.0980   53.7510   20.8460 N.am   45  SER45      -0.1938
     69  CA        69.8210   54.2430   20.3380 C.3    45  SER45       0.2055
     70  C         69.9620   55.7260   19.9030 C.2    45  SER45       0.2643
     71  O         68.9760   56.3340   19.4190 O.2    45  SER45      -0.2714
     72  CB        68.7500   54.0900   21.4200 C.3    45  SER45       0.2130
     73  OG        68.9980   55.0640   22.4670 O.3    45  SER45      -0.2179
     74  N         71.1590   56.3230   20.0390 N.am   46  GLY46      -0.1954
     75  CA        71.3060   57.7210   19.6760 C.3    46  GLY46       0.1869
     76  C         71.1660   58.8960   20.6130 C.2    46  GLY46       0.2309
     77  O         71.1740   60.0700   20.1540 O.2    46  GLY46      -0.2863
     78  N         66.5030   67.6080   27.4170 N.3    58  ARG58      -0.1301
     79  CA        65.9690   66.7430   26.4300 C.3    58  ARG58       0.1248
     80  C         65.0790   65.7710   27.1600 C.3    58  ARG58       0.2009
     81  O         65.5600   65.1230   28.1650 O.3    58  ARG58      -0.2188
     82  CB        67.0750   66.0940   25.7010 C.3    58  ARG58       0.0254
     83  CG        66.5640   64.9660   24.7270 C.3    58  ARG58       0.0485
     84  CD        67.7180   64.5780   23.8250 C.3    58  ARG58       0.2205
     85  NE        67.4340   63.4690   22.9550 N.pl3  58  ARG58      -0.0865
     86  CZ        67.1240   63.6520   21.6840 C.cat  58  ARG58       0.5346
     87  NH1       67.0450   64.9050   21.1890 N.pl3  58  ARG58       0.1354
     88  NH2       66.9060   62.6120   20.9500 N.pl3  58  ARG58       0.1354
     89  N         61.9050   66.7780   18.0860 N.3    96  GLU96      -0.1231
     90  CA        62.8500   66.3110   17.0700 C.3    96  GLU96       0.1699
     91  C         62.9510   64.7370   17.1160 C.2    96  GLU96       0.2593
     92  O         63.0970   64.2660   18.1530 O.2    96  GLU96      -0.2718
     93  CB        64.1920   66.9330   17.4310 C.3    96  GLU96       0.0402
     94  CG        65.3590   66.4560   16.6750 C.3    96  GLU96       0.1161
     95  CD        65.9330   65.1830   17.2780 C.2    96  GLU96       0.3649
     96  OE1       66.2720   65.1920   18.4570 O.co2  96  GLU96      -0.2457
     97  OE2       66.0000   64.1780   16.5870 O.co2  96  GLU96      -0.2457
     98  N         62.9560   63.9780   16.0010 N.am   97  GLY97      -0.1942
     99  CA        63.2580   62.5610   16.0560 C.3    97  GLY97       0.2014
    100  C         62.9940   61.8340   14.7480 C.2    97  GLY97       0.2639
    101  O         62.4510   62.4240   13.8670 O.2    97  GLY97      -0.2714
    102  N         63.3140   60.5360   14.6360 N.am   98  GLY98      -0.1954
    103  CA        62.9960   59.7830   13.4210 C.3    98  GLY98       0.1869
    104  C         62.1120   58.5690   13.5380 C.2    98  GLY98       0.2309
    105  O         62.2160   57.6120   12.6900 O.2    98  GLY98      -0.2863
    106  N         79.5710   58.4680   13.1450 N.3   138  ARG138     -0.1245
    107  CA        78.6490   58.2660   14.2120 C.3   138  ARG138      0.1563
    108  C         78.8730   56.9470   14.9100 C.2   138  ARG138      0.2260
    109  O         78.9560   56.9280   16.1070 O.2   138  ARG138     -0.2867
    110  CB        77.2370   58.3480   13.6820 C.3   138  ARG138      0.0307
    111  CG        76.1090   58.1070   14.7380 C.3   138  ARG138      0.0489
    112  CD        75.7600   59.4540   15.3710 C.3   138  ARG138      0.2205
    113  NE        74.5270   59.6210   16.1670 N.pl3 138  ARG138     -0.0865
    114  CZ        73.2670   59.3270   15.8080 C.cat 138  ARG138      0.5346
    115  NH1       72.9840   58.7160   14.6600 N.pl3 138  ARG138      0.1354
    116  NH2       72.2920   59.6090   16.6700 N.pl3 138  ARG138      0.1354
    117  N         80.0050   55.9730   18.7980 N.3   142  MET142     -0.1245
    118  CA        79.1630   55.1620   19.7170 C.3   142  MET142      0.1570
    119  C         80.0240   54.0050   20.2120 C.2   142  MET142      0.2261
    120  O         79.7020   53.3480   21.1940 O.2   142  MET142     -0.2867
    121  CB        77.9530   54.5750   18.9680 C.3   142  MET142      0.0387
    122  CG        76.8520   55.5410   18.5810 C.3   142  MET142      0.0595
    123  SD        75.7230   54.6140   17.4880 S.3   142  MET142     -0.1393
    124  CE        74.3470   55.8200   17.3480 C.3   142  MET142      0.0692
    125  N         68.1630   48.6060   15.2130 N.3   173  ASP173     -0.1239
    126  CA        69.3180   49.0100   14.4150 C.3   173  ASP173      0.1674
    127  C         70.6460   49.1350   15.2010 C.2   173  ASP173      0.2266
    128  O         70.6730   49.5880   16.3080 O.2   173  ASP173     -0.2867
    129  CB        68.9590   50.2210   13.4900 C.3   173  ASP173      0.1410
    130  CG        67.7970   49.8490   12.4790 C.2   173  ASP173      0.3668
    131  OD1       67.6470   48.6790   11.9880 O.co2 173  ASP173     -0.2456
    132  OD2       66.9510   50.6920   12.2460 O.co2 173  ASP173     -0.2456
    133  N         72.3210   51.2820    9.0000 N.3   211  TYR211     -0.1241
    134  CA        71.7420   52.6290    9.1660 C.3   211  TYR211      0.1605
    135  C         71.1370   53.1860    7.8700 C.2   211  TYR211      0.2264
    136  O         70.0530   53.8020    7.8640 O.2   211  TYR211     -0.2867
    137  CB        72.7950   53.5760    9.6950 C.3   211  TYR211      0.0534
    138  CG        73.0140   53.4160   11.1880 C.ar  211  TYR211     -0.0201
    139  CD1       72.3360   52.4050   11.9070 C.ar  211  TYR211     -0.0009
    140  CD2       73.9090   54.2340   11.8590 C.ar  211  TYR211     -0.0009
    141  CE1       72.5340   52.1790   13.2820 C.ar  211  TYR211      0.0417
    142  CE2       74.1450   54.0740   13.2490 C.ar  211  TYR211      0.0417
    143  CZ        73.4610   53.0220   13.9440 C.ar  211  TYR211      0.1957
    144  OH        73.6770   52.9140   15.2790 O.3   211  TYR211     -0.2866
    145  N         67.9750   51.5720    7.1190 N.3   214  HIS214     -0.1241
    146  CA        66.9070   52.1740    7.9170 C.3   214  HIS214      0.1621
    147  C         66.4420   53.5230    7.3810 C.2   214  HIS214      0.2264
    148  O         65.2250   53.8190    7.3010 O.2   214  HIS214     -0.2867
    149  CB        67.3230   52.3690    9.3560 C.3   214  HIS214      0.0745
    150  CG        66.1890   52.8220   10.2400 C.ar  214  HIS214      0.0817
    151  ND1       64.9930   52.1150   10.3570 N.ar  214  HIS214     -0.2268
    152  CD2       66.0600   53.9240   11.0060 C.ar  214  HIS214      0.1154
    153  CE1       64.1960   52.7680   11.1830 C.ar  214  HIS214      0.1986
    154  NE2       64.8160   53.8710   11.5680 N.ar  214  HIS214     -0.2212
    155  N         62.8650   54.9940    6.3170 N.3   218  GLN218     -0.1245
    156  CA        62.3370   56.2650    6.8150 C.3   218  GLN218      0.1566
    157  C         61.8420   57.1600    5.6930 C.2   218  GLN218      0.2260
    158  O         60.7240   57.6790    5.7410 O.2   218  GLN218     -0.2867
    159  CB        63.3520   56.9640    7.7160 C.3   218  GLN218      0.0367
    160  CG        63.6710   56.1880    8.9920 C.3   218  GLN218      0.0905
    161  CD        64.7900   56.8270    9.8290 C.2   218  GLN218      0.2608
    162  OE1       65.9620   56.9210    9.4080 O.2   218  GLN218     -0.2717
    163  NE2       64.4140   57.3200   10.9890 N.am  218  GLN218     -0.0878
@<TRIPOS>BOND
     1   157   158    2
     2   157   156    1
     3   155   156    1
     4     6     7    1
     5     6     5    1
     6   156   159    1
     7   145   146    1
     8     7     1    1
     9     5     2    1
    10   148   147    2
    11   147   146    1
    12   159   160    1
    13   136   135    2
    14   135   134    1
    15   146   149    1
    16    26    25    1
    17     1     2    1
    18     2     3    1
    19   160   161    1
    20   133   134    1
    21    18    17    2
    22   134   137    1
    23    11    10    2
    24    25    22    1
    25   149   150    1
    26   162   161    2
    27    22    21    1
    28    22    23    1
    29   137   138    1
    30     3     4    2
    31     3     8   am
    32    24    23    2
    33   161   163   am
    34    14    12    1
    35    17    21   am
    36    17    16    1
    37     8     9    1
    38   150   151   ar
    39   150   152   ar
    40    23    27   am
    41   151   153   ar
    42    10     9    1
    43    10    15   am
    44    19    16    1
    45    19    20    1
    46    16    15    1
    47   152   154   ar
    48     9    12    1
    49   153   154   ar
    50   138   140   ar
    51   138   139   ar
    52    12    13    1
    53    27    28    1
    54   140   142   ar
    55   139   141   ar
    56   131   130   ar
    57    28    29    1
    58   132   130   ar
    59    36    37    1
    60    36    35    1
    61   130   129    1
    62    38    37    1
    63    38    39    1
    64   105   104    2
    65    29    31   am
    66    29    30    2
    67    31    32    1
    68   106   107    1
    69   142   143   ar
    70   141   143   ar
    71   103   104    1
    72   103   102    1
    73   129   126    1
    74    35    32    1
    75   110   107    1
    76   110   111    1
    77    32    33    1
    78   101   100    2
    79   143   144    1
    80   107   108    1
    81   126   127    1
    82   126   125    1
    83   102   100   am
    84   115   114    1
    85   111   112    1
    86   100    99    1
    87   108   109    2
    88    33    34    2
    89    33    40   am
    90   127   128    2
    91   112   113    1
    92   114   113    2
    93   114   116    1
    94    40    41    1
    95    98    99    1
    96    98    91   am
    97    97    95   ar
    98    94    95    1
    99    94    93    1
   100    90    91    1
   101    90    93    1
   102    90    89    1
   103    91    92    2
   104    95    96   ar
   105   124   123    1
   106    41    42    1
   107    41    44    1
   108   123   122    1
   109    42    43    2
   110    45    44    1
   111    44    46    1
   112    54    52   ar
   113   122   121    1
   114    67    66    2
   115   117   118    1
   116   121   118    1
   117    52    51    1
   118    52    53   ar
   119    48    51    1
   120    48    47    1
   121    48    49    1
   122    71    70    2
   123    75    74    1
   124    75    76    1
   125   118   119    1
   126    70    74   am
   127    70    69    1
   128    63    61   am
   129    66    65    1
   130    66    68   am
   131    77    76    2
   132   119   120    2
   133    69    68    1
   134    69    72    1
   135    49    50    2
   136    65    64    1
   137    88    86    1
   138    61    60    1
   139    61    62    2
   140    87    86    1
   141    60    59    1
   142    72    73    1
   143    86    85    2
   144    55    56    1
   145    59    56    1
   146    85    84    1
   147    56    57    1
   148    84    83    1
   149    57    58    2
   150    83    82    1
   151    82    79    1
   152    79    80    1
   153    79    78    1
   154    80    81    1
