@<TRIPOS>MOLECULE
tmp/2ze8A00.pdb
 115 108 0 0 0
SMALL
GASTEIGER

@<TRIPOS>ATOM
      1  N         35.4120   17.7920   57.6940 N.3     9  PRO9       -0.2102
      2  CA        36.6580   18.4670   57.8830 C.3     9  PRO9        0.1504
      3  C         36.7080   19.5660   58.9660 C.2     9  PRO9        0.2576
      4  O         35.7100   19.9840   59.5980 O.2     9  PRO9       -0.2718
      5  CB        36.9630   19.0470   56.5020 C.3     9  PRO9        0.0282
      6  CG        36.0890   18.2720   55.5830 C.3     9  PRO9        0.0208
      7  CD        34.8500   18.0710   56.3740 C.3     9  PRO9        0.0893
      8  N         37.9450   19.9880   59.1680 N.am   10  THR10      -0.1939
      9  CA        38.2880   20.7970   60.2760 C.3    10  THR10       0.2028
     10  C         37.5600   22.1550   60.4080 C.2    10  THR10       0.2642
     11  O         37.6220   22.6610   61.5080 O.2    10  THR10      -0.2714
     12  CB        39.7810   21.0780   60.3280 C.3    10  THR10       0.1808
     13  OG1       39.9950   21.7650   61.5310 O.3    10  THR10      -0.2208
     14  CG2       40.1380   22.1050   59.2380 C.3    10  THR10       0.0379
     15  N         36.9360   22.8120   59.4130 N.am   11  CYS11      -0.1953
     16  CA        36.0730   23.9110   59.9320 C.3    11  CYS11       0.1843
     17  C         34.7760   24.0540   59.2520 C.2    11  CYS11       0.2626
     18  O         34.5150   24.9470   58.4270 O.2    11  CYS11      -0.2714
     19  CB        36.7410   25.2480   59.9440 C.3    11  CYS11       0.0997
     20  SG        38.3880   25.1400   60.4030 S.3    11  CYS11      -0.0797
     21  N         33.9000   23.1710   59.5980 N.am   12  SER12      -0.1936
     22  CA        32.7200   23.1250   58.8260 C.3    12  SER12       0.2055
     23  C         31.6070   23.5690   59.7540 C.2    12  SER12       0.2644
     24  O         30.4540   23.3360   59.4350 O.2    12  SER12      -0.2714
     25  CB        32.5300   21.6680   58.4020 C.3    12  SER12       0.2130
     26  OG        33.7560   20.9540   58.3190 O.3    12  SER12      -0.2179
     27  N         31.9480   24.1590   60.9230 N.am   13  GLY13      -0.1939
     28  CA        30.9590   24.5090   61.9900 C.3    13  GLY13       0.2014
     29  C         30.2420   23.2800   62.5300 C.2    13  GLY13       0.2639
     30  O         29.0460   23.3270   62.8440 O.2    13  GLY13      -0.2714
     31  N         30.9510   22.1530   62.6360 N.am   14  LYS14      -0.1963
     32  CA        30.3340   20.9940   63.2060 C.3    14  LYS14       0.1728
     33  C         29.8730   21.3860   64.6030 C.2    14  LYS14       0.2616
     34  O         28.6530   21.5270   64.8440 O.2    14  LYS14      -0.2715
     35  CB        31.3160   19.8440   63.1880 C.3    14  LYS14       0.0311
     36  CG        31.4950   19.2260   61.8160 C.3    14  LYS14       0.0038
     37  CD        32.5720   18.2140   61.8160 C.3    14  LYS14       0.0206
     38  CE        34.0010   18.8390   61.7680 C.3    14  LYS14       0.1093
     39  NZ        34.5050   19.1230   63.1190 N.3    14  LYS14      -0.1314
     40  N         30.8290   21.6310   65.4970 N.am   15  THR15      -0.1951
     41  CA        30.5180   21.9920   66.8660 C.3    15  THR15       0.1897
     42  C         29.2260   22.8250   67.0090 C.2    15  THR15       0.2313
     43  O         28.3000   22.3960   67.6810 O.2    15  THR15      -0.2863
     44  CB        31.6760   22.7190   67.5090 C.3    15  THR15       0.1794
     45  OG1       32.9230   22.1230   67.1300 O.3    15  THR15      -0.2208
     46  CG2       31.5470   22.6920   68.9930 C.3    15  THR15       0.0378
     47  N         37.1710   13.2290   69.0110 N.3    33  ASP33      -0.1239
     48  CA        38.4090   13.9240   68.7540 C.3    33  ASP33       0.1674
     49  C         39.4840   13.5900   69.7210 C.2    33  ASP33       0.2266
     50  O         39.5150   14.2080   70.7690 O.2    33  ASP33      -0.2867
     51  CB        38.1610   15.3670   69.0160 C.3    33  ASP33       0.1410
     52  CG        39.2710   16.2410   68.5530 C.2    33  ASP33       0.3668
     53  OD1       40.4200   15.8250   68.9290 O.co2  33  ASP33      -0.2456
     54  OD2       38.9770   17.2940   67.8380 O.co2  33  ASP33      -0.2456
     55  N         41.5740   16.7150   71.2480 N.3    36  GLN36      -0.1245
     56  CA        40.8650   17.7180   72.0910 C.3    36  GLN36       0.1566
     57  C         40.7460   17.2100   73.5290 C.2    36  GLN36       0.2260
     58  O         40.2720   17.9960   74.3890 O.2    36  GLN36      -0.2867
     59  CB        39.5470   18.0270   71.5280 C.3    36  GLN36       0.0367
     60  CG        39.4530   19.3250   70.9360 C.3    36  GLN36       0.0905
     61  CD        38.1130   19.4920   70.2680 C.2    36  GLN36       0.2608
     62  OE1       37.1790   18.7720   70.4960 O.2    36  GLN36      -0.2717
     63  NE2       38.0260   20.4680   69.4490 N.am   36  GLN36      -0.0878
     64  N         40.8110   23.3490   69.6570 N.3    46  GLY46      -0.1225
     65  CA        39.5130   23.7360   69.1380 C.3    46  GLY46       0.1811
     66  C         38.3280   23.4280   70.0020 C.2    46  GLY46       0.2280
     67  O         37.2730   23.2380   69.4420 O.2    46  GLY46      -0.2866
     68  N         29.2100   18.8270   76.5530 N.3    58  ARG58      -0.1245
     69  CA        30.1720   18.2720   75.6480 C.3    58  ARG58       0.1563
     70  C         31.0980   17.2520   76.3620 C.2    58  ARG58       0.2260
     71  O         31.7560   17.5450   77.3060 O.2    58  ARG58      -0.2867
     72  CB        31.0010   19.4950   75.0930 C.3    58  ARG58       0.0307
     73  CG        31.9140   19.0740   73.8830 C.3    58  ARG58       0.0489
     74  CD        32.7340   20.1500   73.3040 C.3    58  ARG58       0.2205
     75  NE        33.6960   19.6850   72.2530 N.pl3  58  ARG58      -0.0865
     76  CZ        33.3810   19.3960   70.9690 C.cat  58  ARG58       0.5346
     77  NH1       32.1350   19.4460   70.4900 N.pl3  58  ARG58       0.1354
     78  NH2       34.3010   19.0610   70.1180 N.pl3  58  ARG58       0.1354
     79  N         30.1130   13.8640   67.3620 N.3    96  GLU96      -0.1231
     80  CA        30.4470   15.0030   66.5050 C.3    96  GLU96       0.1699
     81  C         31.9590   15.0170   66.5560 C.2    96  GLU96       0.2593
     82  O         32.5580   14.9080   67.6530 O.2    96  GLU96      -0.2718
     83  CB        29.8970   16.2980   67.0930 C.3    96  GLU96       0.0402
     84  CG        30.3180   17.5040   66.3320 C.3    96  GLU96       0.1161
     85  CD        31.5370   18.1480   66.8950 C.2    96  GLU96       0.3649
     86  OE1       31.4780   19.2310   67.4380 O.co2  96  GLU96      -0.2457
     87  OE2       32.6010   17.6050   66.8080 O.co2  96  GLU96      -0.2457
     88  N         32.6110   15.1320   65.4020 N.am   97  GLY97      -0.1942
     89  CA        34.0090   15.5270   65.4190 C.3    97  GLY97       0.2014
     90  C         34.7260   15.2450   64.1440 C.2    97  GLY97       0.2639
     91  O         34.0870   14.9090   63.1280 O.2    97  GLY97      -0.2714
     92  N         36.0570   15.3430   64.2080 N.am   98  GLY98      -0.1954
     93  CA        36.8290   15.1190   63.0070 C.3    98  GLY98       0.1869
     94  C         37.9250   14.1180   62.9970 C.2    98  GLY98       0.2309
     95  O         38.6580   14.0610   61.9990 O.2    98  GLY98      -0.2863
     96  N         38.7420   31.7480   62.2680 N.3   138  ARG138     -0.1245
     97  CA        38.7950   30.8760   63.3630 C.3   138  ARG138      0.1563
     98  C         40.1260   30.9990   64.0790 C.2   138  ARG138      0.2260
     99  O         40.1760   30.9400   65.2830 O.2   138  ARG138     -0.2867
    100  CB        38.5850   29.4670   62.8820 C.3   138  ARG138      0.0307
    101  CG        38.4740   28.4670   63.9790 C.3   138  ARG138      0.0489
    102  CD        37.0270   28.3270   64.4190 C.3   138  ARG138      0.2205
    103  NE        36.9460   27.3440   65.5030 N.pl3 138  ARG138     -0.0865
    104  CZ        37.3230   27.5860   66.7810 C.cat 138  ARG138      0.5346
    105  NH1       37.7840   28.8100   67.1580 N.pl3 138  ARG138      0.1354
    106  NH2       37.2160   26.6100   67.7050 N.pl3 138  ARG138      0.1354
    107  N         41.6910   14.8970   55.7700 N.3   218  GLN218     -0.1245
    108  CA        40.5030   14.3650   56.3950 C.3   218  GLN218      0.1566
    109  C         39.6490   13.9540   55.1880 C.2   218  GLN218      0.2260
    110  O         39.1440   12.8200   55.0920 O.2   218  GLN218     -0.2867
    111  CB        39.8590   15.3980   57.3340 C.3   218  GLN218      0.0367
    112  CG        40.7370   15.8330   58.4530 C.3   218  GLN218      0.0905
    113  CD        39.9760   16.7310   59.4040 C.2   218  GLN218      0.2608
    114  OE1       39.6750   17.9100   59.1310 O.2   218  GLN218     -0.2717
    115  NE2       39.6180   16.1780   60.5210 N.am  218  GLN218     -0.0878
@<TRIPOS>BOND
     1   110   109    2
     2   109   108    1
     3     6     7    1
     4     6     5    1
     5   107   108    1
     6     7     1    1
     7   108   111    1
     8     5     2    1
     9   111   112    1
    10     1     2    1
    11     2     3    1
    12    26    25    1
    13    25    22    1
    14    18    17    2
    15   112   113    1
    16    22    21    1
    17    22    23    1
    18     3     8   am
    19     3     4    2
    20   114   113    2
    21     8     9    1
    22    14    12    1
    23    17    21   am
    24    17    16    1
    25   113   115   am
    26    15    16    1
    27    15    10   am
    28    24    23    2
    29    23    27   am
    30    16    19    1
    31    19    20    1
    32     9    12    1
    33     9    10    1
    34    12    13    1
    35    10    11    2
    36    27    28    1
    37    38    37    1
    38    38    39    1
    39    36    37    1
    40    36    35    1
    41    28    29    1
    42    95    94    2
    43    96    97    1
    44    29    31   am
    45    29    30    2
    46    31    32    1
    47   100    97    1
    48   100   101    1
    49    94    93    1
    50    93    92    1
    51    91    90    2
    52    35    32    1
    53    32    33    1
    54    97    98    1
    55   101   102    1
    56    98    99    2
    57    90    92   am
    58    90    89    1
    59   102   103    1
    60    33    34    2
    61    33    40   am
    62    88    89    1
    63    88    81   am
    64    40    41    1
    65   103   104    2
    66    84    85    1
    67    84    83    1
    68    80    81    1
    69    80    83    1
    70    80    79    1
    71    81    82    2
    72   104   105    1
    73   104   106    1
    74    87    85   ar
    75    41    42    1
    76    41    44    1
    77    85    86   ar
    78    42    43    2
    79    45    44    1
    80    44    46    1
    81    54    52   ar
    82    52    53   ar
    83    52    51    1
    84    48    47    1
    85    48    51    1
    86    48    49    1
    87    65    64    1
    88    65    66    1
    89    67    66    2
    90    63    61   am
    91    49    50    2
    92    78    76    1
    93    61    62    2
    94    61    60    1
    95    77    76    1
    96    60    59    1
    97    76    75    2
    98    55    56    1
    99    59    56    1
   100    56    57    1
   101    75    74    1
   102    74    73    1
   103    57    58    2
   104    73    72    1
   105    72    69    1
   106    69    70    1
   107    69    68    1
   108    70    71    2
