@<TRIPOS>MOLECULE
tmp/2ze9A01.pdb
 240 232 0 0 0
SMALL
GASTEIGER

@<TRIPOS>ATOM
      1  N         11.0190    5.7560   30.9660 N.3    88  LEU88      -0.1245
      2  CA         9.8290    6.2270   30.3160 C.3    88  LEU88       0.1561
      3  C         10.2030    7.5320   29.6760 C.2    88  LEU88       0.2260
      4  O         10.9050    8.3140   30.3040 O.2    88  LEU88      -0.2867
      5  CB         8.6840    6.3970   31.3430 C.3    88  LEU88       0.0270
      6  CG         7.3540    6.8850   30.7510 C.3    88  LEU88       0.0019
      7  CD1        6.9530    5.9970   29.5960 C.3    88  LEU88       0.0001
      8  CD2        6.2770    6.9240   31.8110 C.3    88  LEU88       0.0001
      9  N          4.3970    6.8000   24.7070 N.3   123  ALA123     -0.1231
     10  CA         2.9360    6.7110   24.4760 C.3   123  ALA123      0.1679
     11  C          2.6190    7.1610   23.0680 C.2   123  ALA123      0.2434
     12  O          3.2490    8.0990   22.5900 O.2   123  ALA123     -0.2733
     13  CB         2.1720    7.5620   25.4830 C.3   123  ALA123      0.0304
     14  N          1.6290    6.5250   22.3990 N.am  124  PRO124     -0.2718
     15  CA         1.3160    6.9260   21.0120 C.3   124  PRO124      0.1535
     16  C          0.9770    8.4140   20.7380 C.2   124  PRO124      0.2598
     17  O          1.1290    8.8280   19.5790 O.2   124  PRO124     -0.2715
     18  CB         0.1560    5.9760   20.5900 C.3   124  PRO124      0.0310
     19  CG        -0.4170    5.4500   21.8940 C.3   124  PRO124      0.0237
     20  CD         0.7470    5.4320   22.8670 C.3   124  PRO124      0.0939
     21  N          0.5900    9.2380   21.7170 N.am  125  ILE125     -0.1964
     22  CA         0.3960   10.6640   21.3370 C.3   125  ILE125      0.1727
     23  C          1.4550   11.6900   21.8120 C.2   125  ILE125      0.2616
     24  O          2.0210   12.4270   20.9660 O.2   125  ILE125     -0.2715
     25  CB        -1.1110   11.1820   21.4360 C.3   125  ILE125      0.0290
     26  CG1       -1.9390   10.7010   20.2430 C.3   125  ILE125      0.0022
     27  CG2       -1.1770   12.7000   21.4940 C.3   125  ILE125      0.0023
     28  CD1       -1.7240   11.4800   18.9070 C.3   125  ILE125      0.0001
     29  N          1.7390   11.7640   23.1170 N.am  126  TYR126     -0.1974
     30  CA         2.8770   12.6040   23.5380 C.3   126  TYR126      0.1639
     31  C          4.1810   12.0200   23.0660 C.2   126  TYR126      0.2290
     32  O          4.8840   11.4280   23.8950 O.2   126  TYR126     -0.2864
     33  CB         3.1090   12.6910   25.0650 C.3   126  TYR126      0.0560
     34  CG         1.9450   12.5470   26.0040 C.ar  126  TYR126     -0.0198
     35  CD1        1.9320   13.2460   27.2230 C.ar  126  TYR126     -0.0009
     36  CD2        0.8730   11.7130   25.7010 C.ar  126  TYR126     -0.0009
     37  CE1        0.8550   13.1250   28.1050 C.ar  126  TYR126      0.0417
     38  CE2       -0.1920   11.5900   26.5620 C.ar  126  TYR126      0.0417
     39  CZ        -0.2010   12.2860   27.7560 C.ar  126  TYR126      0.1957
     40  OH        -1.2730   12.1180   28.5930 O.3   126  TYR126     -0.2866
     41  N         -2.1860    0.2570   24.2460 N.3   164  LEU164     -0.1245
     42  CA        -1.4780    1.1840   25.1480 C.3   164  LEU164      0.1561
     43  C         -0.3190    0.5520   25.9160 C.2   164  LEU164      0.2260
     44  O         -0.2890    0.5590   27.1660 O.2   164  LEU164     -0.2867
     45  CB        -2.4830    1.8860   26.0540 C.3   164  LEU164      0.0270
     46  CG        -3.6190    2.5550   25.2650 C.3   164  LEU164      0.0019
     47  CD1       -4.8570    2.8250   26.1510 C.3   164  LEU164      0.0001
     48  CD2       -3.1000    3.8270   24.6140 C.3   164  LEU164      0.0001
     49  N          4.0520    0.1420   26.0700 N.3   166  TRP166     -0.1241
     50  CA         5.3930    0.6280   25.7310 C.3   166  TRP166      0.1605
     51  C          6.2200    0.4080   26.9720 C.2   166  TRP166      0.2264
     52  O          5.6640    0.0910   28.0440 O.2   166  TRP166     -0.2867
     53  CB         5.4010    2.1260   25.3460 C.3   166  TRP166      0.0550
     54  CG         4.7370    2.9950   26.3780 C.ar  166  TRP166      0.0003
     55  CD1        5.2910    3.5260   27.5180 C.ar  166  TRP166      0.0946
     56  CD2        3.3610    3.3750   26.3830 C.ar  166  TRP166      0.0152
     57  NE1        4.3330    4.1990   28.2390 N.ar  166  TRP166     -0.2442
     58  CE2        3.1380    4.1230   27.5670 C.ar  166  TRP166      0.0810
     59  CE3        2.2870    3.1460   25.4940 C.ar  166  TRP166      0.0012
     60  CZ2        1.8820    4.6680   27.8790 C.ar  166  TRP166      0.0191
     61  CZ3        1.0700    3.6670   25.7910 C.ar  166  TRP166      0.0001
     62  CH2        0.8630    4.4360   26.9790 C.ar  166  TRP166      0.0015
     63  N          7.9840    1.0920   30.3760 N.3   168  ALA168     -0.1245
     64  CA         8.0500    2.0620   31.4760 C.3   168  ALA168      0.1562
     65  C          8.9620    1.6030   32.6050 C.2   168  ALA168      0.2260
     66  O          9.1250    2.3290   33.5680 O.2   168  ALA168     -0.2867
     67  CB         6.6190    2.4740   32.0040 C.3   168  ALA168      0.0290
     68  N         12.4030    1.1970   34.5470 N.3   170  LYS170     -0.1245
     69  CA        13.3000    2.2710   34.9000 C.3   170  LYS170      0.1561
     70  C         14.4950    1.5460   35.4750 C.2   170  LYS170      0.2260
     71  O         14.5120    1.1790   36.6560 O.2   170  LYS170     -0.2867
     72  CB        12.6290    3.2420   35.9150 C.3   170  LYS170      0.0271
     73  CG        11.4540    4.0240   35.3070 C.3   170  LYS170      0.0035
     74  CD        10.4140    4.4130   36.3680 C.3   170  LYS170      0.0206
     75  CE         8.9840    4.3220   35.9020 C.3   170  LYS170      0.1093
     76  NZ         8.7200    4.8880   34.5250 N.3   170  LYS170     -0.1314
     77  N         11.7120    8.3710   36.9690 N.3   185  ASN185     -0.1240
     78  CA        12.0020    8.7540   35.5820 C.3   185  ASN185      0.1653
     79  C         13.0560    9.8810   35.5770 C.2   185  ASN185      0.2266
     80  O         13.1250   10.6440   36.5260 O.2   185  ASN185     -0.2867
     81  CB        10.7290    9.2250   34.8560 C.3   185  ASN185      0.1155
     82  CG         9.7160    8.1250   34.6950 C.2   185  ASN185      0.2627
     83  OD1       10.0400    7.0660   34.1610 O.2   185  ASN185     -0.2716
     84  ND2        8.4890    8.3420   35.1750 N.am  185  ASN185     -0.0877
     85  N         13.3680   12.8730   34.7380 N.3   187  TRP187     -0.1241
     86  CA        12.6550   14.1270   34.4270 C.3   187  TRP187      0.1605
     87  C         12.9760   15.2560   35.4090 C.2   187  TRP187      0.2264
     88  O         12.3090   15.3940   36.4690 O.2   187  TRP187     -0.2867
     89  CB        11.1370   13.8830   34.4380 C.3   187  TRP187      0.0550
     90  CG        10.6740   12.7660   33.5400 C.ar  187  TRP187      0.0003
     91  CD1       11.4270   12.0860   32.6210 C.ar  187  TRP187      0.0946
     92  CD2        9.3500   12.1800   33.4860 C.ar  187  TRP187      0.0152
     93  NE1       10.6570   11.1100   32.0070 N.ar  187  TRP187     -0.2442
     94  CE2        9.3790   11.1560   32.5190 C.ar  187  TRP187      0.0810
     95  CE3        8.1500   12.4190   34.1670 C.ar  187  TRP187      0.0012
     96  CZ2        8.2440   10.3760   32.2090 C.ar  187  TRP187      0.0191
     97  CZ3        7.0110   11.6350   33.8450 C.ar  187  TRP187      0.0001
     98  CH2        7.0830   10.6250   32.8840 C.ar  187  TRP187      0.0015
     99  N          1.5720    5.8250   43.5720 N.3   337  GLN337     -0.1245
    100  CA         0.8840    6.9730   43.0390 C.3   337  GLN337      0.1566
    101  C         -0.6400    6.7560   43.1150 C.2   337  GLN337      0.2260
    102  O         -1.3790    7.6460   43.5440 O.2   337  GLN337     -0.2867
    103  CB         1.2970    7.2580   41.5810 C.3   337  GLN337      0.0367
    104  CG         0.5730    8.4620   40.9850 C.3   337  GLN337      0.0905
    105  CD         0.7290    8.5420   39.5090 C.2   337  GLN337      0.2608
    106  OE1        1.8690    8.6140   38.9980 O.2   337  GLN337     -0.2717
    107  NE2       -0.4050    8.5180   38.7810 N.am  337  GLN337     -0.0878
    108  N         -7.1410    5.2230   34.8120 N.3   342  THR342     -0.1218
    109  CA        -8.0740    6.1810   34.2020 C.3   342  THR342      0.1862
    110  C         -8.9550    5.4120   33.2590 C.2   342  THR342      0.2287
    111  O         -8.4860    5.0000   32.2070 O.2   342  THR342     -0.2866
    112  CB        -7.4120    7.3510   33.4800 C.3   342  THR342      0.1770
    113  OG1       -6.5300    8.0300   34.3790 O.3   342  THR342     -0.2211
    114  CG2       -8.4950    8.3460   33.0060 C.3   342  THR342      0.0375
    115  N         -9.4120    4.7820   29.1570 N.3   345  PRO345     -0.2102
    116  CA        -9.4950    3.5720   28.3480 C.3   345  PRO345      0.1504
    117  C         -9.1370    2.2980   29.1060 C.2   345  PRO345      0.2575
    118  O         -9.3570    1.2100   28.5600 O.2   345  PRO345     -0.2718
    119  CB        -8.4690    3.8410   27.2490 C.3   345  PRO345      0.0282
    120  CG        -7.3470    4.6170   28.0150 C.3   345  PRO345      0.0208
    121  CD        -8.1050    5.4610   29.0200 C.3   345  PRO345      0.0893
    122  N         -8.6350    2.4280   30.3520 N.am  346  LEU346     -0.1980
    123  CA        -8.2510    1.2810   31.1760 C.3   346  LEU346      0.1596
    124  C         -9.3120    0.9170   32.2090 C.2   346  LEU346      0.2287
    125  O        -10.0630    1.7880   32.6730 O.2   346  LEU346     -0.2864
    126  CB        -6.9660    1.5720   31.9310 C.3   346  LEU346      0.0297
    127  CG        -5.5110    1.3840   31.3990 C.3   346  LEU346      0.0022
    128  CD1       -5.1280   -0.0530   31.1510 C.3   346  LEU346      0.0001
    129  CD2       -5.2110    2.2040   30.2050 C.3   346  LEU346      0.0001
    130  N         -7.4570   14.2130   31.6750 N.3   380  VAL380     -0.1231
    131  CA        -7.5770   12.7950   31.2690 C.3   380  VAL380      0.1692
    132  C         -6.5400   12.4350   30.1800 C.2   380  VAL380      0.2592
    133  O         -6.8020   12.5580   28.9570 O.2   380  VAL380     -0.2718
    134  CB        -9.0690   12.4100   30.9050 C.3   380  VAL380      0.0266
    135  CG1       -9.1830   10.9390   30.3740 C.3   380  VAL380      0.0020
    136  CG2      -10.0130   12.6460   32.1220 C.3   380  VAL380      0.0020
    137  N         -5.3680   11.9970   30.6590 N.am  381  GLY381     -0.1957
    138  CA        -4.1380   11.9500   29.8640 C.3   381  GLY381      0.1869
    139  C         -3.3520   13.2660   29.9900 C.2   381  GLY381      0.2309
    140  O         -3.5360   14.2010   29.1710 O.2   381  GLY381     -0.2863
    141  N          0.2160   12.9610   32.0390 N.3   383  GLY383     -0.1225
    142  CA        -0.7210   12.4160   33.0190 C.3   383  GLY383      0.1811
    143  C         -0.1930   12.9340   34.3570 C.2   383  GLY383      0.2280
    144  O          0.9770   12.6570   34.7050 O.2   383  GLY383     -0.2866
    145  N         -4.9940    9.7390   39.7390 N.3   387  GLN387     -0.1245
    146  CA        -6.0790    9.2990   38.8220 C.3   387  GLN387      0.1566
    147  C         -7.4380    9.1450   39.5220 C.2   387  GLN387      0.2260
    148  O         -8.3550    8.4840   39.0150 O.2   387  GLN387     -0.2867
    149  CB        -5.6880    8.0080   38.0970 C.3   387  GLN387      0.0367
    150  CG        -4.5270    8.1750   37.1160 C.3   387  GLN387      0.0905
    151  CD        -4.0130    6.8570   36.6360 C.2   387  GLN387      0.2608
    152  OE1       -3.2900    6.1710   37.3380 O.2   387  GLN387     -0.2717
    153  NE2       -4.3860    6.4770   35.4200 N.am  387  GLN387     -0.0878
    154  N          5.0360    8.9950   43.6090 N.3   442  HIS442     -0.1241
    155  CA         5.2170    8.1700   42.4230 C.3   442  HIS442      0.1621
    156  C          5.8720    6.8020   42.7750 C.2   442  HIS442      0.2264
    157  O          6.1210    6.0200   41.8570 O.2   442  HIS442     -0.2867
    158  CB         5.9960    9.0080   41.3950 C.3   442  HIS442      0.0745
    159  CG         6.0380    8.4420   40.0140 C.ar  442  HIS442      0.0817
    160  ND1        7.1500    7.8090   39.5080 N.ar  442  HIS442     -0.2268
    161  CD2        5.1570    8.5130   38.9950 C.ar  442  HIS442      0.1154
    162  CE1        6.9250    7.4520   38.2560 C.ar  442  HIS442      0.1986
    163  NE2        5.7180    7.8580   37.9260 N.ar  442  HIS442     -0.2212
    164  N          6.3090    2.9000   43.5850 N.3   444  LYS444     -0.1245
    165  CA         5.6300    1.6270   43.3510 C.3   444  LYS444      0.1561
    166  C          6.1710    0.6940   44.4040 C.2   444  LYS444      0.2260
    167  O          7.0100   -0.1090   44.1300 O.2   444  LYS444     -0.2867
    168  CB         5.9180    1.0970   41.9600 C.3   444  LYS444      0.0271
    169  CG         5.4850    2.0860   40.8650 C.3   444  LYS444      0.0035
    170  CD         6.6420    2.9840   40.3440 C.3   444  LYS444      0.0206
    171  CE         6.2370    3.7420   39.0930 C.3   444  LYS444      0.1093
    172  NZ         5.1690    4.7860   39.4300 N.3   444  LYS444     -0.1314
    173  N          9.0800   -0.6330   39.0560 N.3   457  SER457     -0.1217
    174  CA         8.3640    0.3130   38.2200 C.3   457  SER457      0.1889
    175  C          6.8620   -0.0260   38.1020 C.2   457  SER457      0.2288
    176  O          6.0540    0.8370   37.7570 O.2   457  SER457     -0.2866
    177  CB         9.0130    0.4230   36.8270 C.3   457  SER457      0.2089
    178  OG         8.9660   -0.8180   36.1230 O.3   457  SER457     -0.2183
    179  N          3.2150   -0.2770   38.7810 N.3   459  ASN459     -0.1240
    180  CA         2.1340    0.2730   39.5620 C.3   459  ASN459      0.1653
    181  C          1.0640   -0.7990   39.8640 C.2   459  ASN459      0.2266
    182  O          0.8720   -1.7720   39.0660 O.2   459  ASN459     -0.2867
    183  CB         1.4830    1.4380   38.8030 C.3   459  ASN459      0.1155
    184  CG         2.4590    2.5760   38.5050 C.2   459  ASN459      0.2627
    185  OD1        2.7750    3.3660   39.3910 O.2   459  ASN459     -0.2716
    186  ND2        2.8990    2.6990   37.2270 N.am  459  ASN459     -0.0877
    187  N         -2.1600    0.0240   40.0540 N.3   461  TYR461     -0.1228
    188  CA        -3.2720    0.3470   39.1600 C.3   461  TYR461      0.1721
    189  C         -3.0810   -0.2900   37.7910 C.2   461  TYR461      0.2437
    190  O         -1.9340   -0.5550   37.3940 O.2   461  TYR461     -0.2733
    191  CB        -3.4960    1.8500   39.0180 C.3   461  TYR461      0.0547
    192  CG        -2.4360    2.6540   38.3010 C.ar  461  TYR461     -0.0200
    193  CD1       -2.4170    2.7630   36.9160 C.ar  461  TYR461     -0.0009
    194  CD2       -1.4860    3.3530   39.0200 C.ar  461  TYR461     -0.0009
    195  CE1       -1.4320    3.5250   36.2560 C.ar  461  TYR461      0.0417
    196  CE2       -0.4950    4.1560   38.3730 C.ar  461  TYR461      0.0417
    197  CZ        -0.4900    4.2340   36.9930 C.ar  461  TYR461      0.1957
    198  OH         0.4650    5.0110   36.3840 O.3   461  TYR461     -0.2866
    199  N         -4.2050   -0.5870   37.0860 N.am  462  PRO462     -0.2718
    200  CA        -4.1540   -1.1720   35.7560 C.3   462  PRO462      0.1535
    201  C         -3.3150   -0.3970   34.7360 C.2   462  PRO462      0.2598
    202  O         -3.5750    0.7980   34.4870 O.2   462  PRO462     -0.2715
    203  CB        -5.6560   -1.2230   35.3540 C.3   462  PRO462      0.0310
    204  CG        -6.3090   -1.4810   36.6120 C.3   462  PRO462      0.0237
    205  CD        -5.6100   -0.5010   37.5290 C.3   462  PRO462      0.0939
    206  N         -2.3230   -1.1030   34.1830 N.am  463  ALA463     -0.1964
    207  CA        -1.4720   -0.6340   33.0870 C.3   463  ALA463      0.1728
    208  C         -0.8520   -1.8170   32.3640 C.2   463  ALA463      0.2616
    209  O         -0.4520   -2.8110   32.9990 O.2   463  ALA463     -0.2715
    210  CB        -0.3570    0.3090   33.6020 C.3   463  ALA463      0.0334
    211  N         -0.7330   -1.6980   31.0350 N.am  464  TRP464     -0.1960
    212  CA        -0.3260   -2.8620   30.1930 C.3   464  TRP464      0.1771
    213  C          1.0370   -2.6390   29.5510 C.2   464  TRP464      0.2619
    214  O          1.1990   -2.7860   28.3260 O.2   464  TRP464     -0.2715
    215  CB        -1.3970   -3.1740   29.1420 C.3   464  TRP464      0.0590
    216  CG        -2.7310   -3.3480   29.7560 C.ar  464  TRP464      0.0006
    217  CD1       -3.0090   -3.9380   30.9700 C.ar  464  TRP464      0.0946
    218  CD2       -3.9890   -2.9600   29.2100 C.ar  464  TRP464      0.0152
    219  NE1       -4.3590   -3.9170   31.2180 N.ar  464  TRP464     -0.2442
    220  CE2       -4.9900   -3.3240   30.1590 C.ar  464  TRP464      0.0810
    221  CE3       -4.3840   -2.3250   28.0160 C.ar  464  TRP464      0.0012
    222  CZ2       -6.3590   -3.0700   29.9440 C.ar  464  TRP464      0.0191
    223  CZ3       -5.7340   -2.0580   27.8110 C.ar  464  TRP464      0.0001
    224  CH2       -6.7080   -2.4660   28.7510 C.ar  464  TRP464      0.0015
    225  N          2.0090   -2.3030   30.4040 N.am  465  LEU465     -0.1977
    226  CA         3.2970   -1.7900   29.9580 C.3   465  LEU465      0.1596
    227  C          4.3920   -2.8040   30.2240 C.2   465  LEU465      0.2287
    228  O          4.1560   -3.8270   30.9040 O.2   465  LEU465     -0.2864
    229  CB         3.6230   -0.4350   30.6390 C.3   465  LEU465      0.0297
    230  CG         2.5920    0.7150   30.6540 C.3   465  LEU465      0.0022
    231  CD1        2.9880    1.8690   31.6260 C.3   465  LEU465      0.0001
    232  CD2        2.2840    1.2460   29.3060 C.3   465  LEU465      0.0001
    233  N          7.2730   -3.4640   32.4220 N.3   467  ASP467     -0.1239
    234  CA         7.6850   -2.9700   33.7170 C.3   467  ASP467      0.1674
    235  C          8.6900   -3.9370   34.3160 C.2   467  ASP467      0.2266
    236  O          9.0000   -4.9430   33.7170 O.2   467  ASP467     -0.2867
    237  CB         6.4620   -2.6120   34.6210 C.3   467  ASP467      0.1410
    238  CG         5.9440   -1.1640   34.3830 C.2   467  ASP467      0.3668
    239  OD1        6.7680   -0.2590   34.2910 O.co2 467  ASP467     -0.2456
    240  OD2        4.7430   -0.9300   34.2670 O.co2 467  ASP467     -0.2456
@<TRIPOS>BOND
     1    28    26    1
     2    17    16    2
     3    26    25    1
     4    18    15    1
     5    18    19    1
     6    16    15    1
     7    16    21   am
     8    24    23    2
     9    15    14    1
    10    22    25    1
    11    22    21    1
    12    22    23    1
    13    25    27    1
    14    23    29   am
    15    19    20    1
    16    14    20    1
    17    14    11   am
    18    12    11    2
    19    31    30    1
    20    31    32    2
    21    11    10    1
    22    29    30    1
    23    30    33    1
    24    41    42    1
    25    10     9    1
    26    10    13    1
    27    48    46    1
    28    33    34    1
    29    42    43    1
    30    42    45    1
    31    46    45    1
    32    46    47    1
    33    53    50    1
    34    53    54    1
    35    59    61   ar
    36    59    56   ar
    37    36    34   ar
    38    36    38   ar
    39    50    49    1
    40    50    51    1
    41    61    62   ar
    42    43    44    2
    43    34    35   ar
    44    54    56   ar
    45    54    55   ar
    46    56    58   ar
    47    38    39   ar
    48    51    52    2
    49    62    60   ar
    50    35    37   ar
    51   119   120    1
    52   119   116    1
    53    55    57   ar
    54    58    60   ar
    55    58    57   ar
    56    39    37   ar
    57    39    40    1
    58   223   221   ar
    59   223   224   ar
    60   120   121    1
    61   221   218   ar
    62   214   213    2
    63   116   117    1
    64   116   115    1
    65   118   117    2
    66   224   222   ar
    67   133   132    2
    68   121   115    1
    69   117   122   am
    70   215   216    1
    71   215   212    1
    72   140   139    2
    73   218   216   ar
    74   218   220   ar
    75   232   230    1
    76   213   212    1
    77   213   225   am
    78     7     6    1
    79     3     4    2
    80     3     2    1
    81   216   217   ar
    82   138   139    1
    83   138   137    1
    84   222   220   ar
    85   226   227    1
    86   226   225    1
    87   226   229    1
    88   220   219   ar
    89   132   137   am
    90   132   131    1
    91   212   211    1
    92   129   127    1
    93   227   228    2
    94     2     1    1
    95     2     5    1
    96   122   123    1
    97   135   134    1
    98    63    64    1
    99   229   230    1
   100   230   231    1
   101     6     5    1
   102     6     8    1
   103   134   131    1
   104   134   136    1
   105   217   219   ar
   106   211   208   am
   107   128   127    1
   108   123   126    1
   109   123   124    1
   110   131   130    1
   111   127   126    1
   112    64    67    1
   113    64    65    1
   114    93    94   ar
   115    93    91   ar
   116   141   142    1
   117   111   110    2
   118   124   125    2
   119    96    94   ar
   120    96    98   ar
   121   208   209    2
   122   208   207    1
   123   233   234    1
   124    94    92   ar
   125    65    66    2
   126    91    90   ar
   127    98    97   ar
   128   114   112    1
   129   142   143    1
   130   207   210    1
   131   207   206    1
   132   110   109    1
   133   112   109    1
   134   112   113    1
   135    92    90   ar
   136    92    95   ar
   137    90    89    1
   138   234   235    1
   139   234   237    1
   140   236   235    2
   141    97    95   ar
   142    83    82    2
   143   206   201   am
   144   109   108    1
   145   240   238   ar
   146   239   238   ar
   147   143   144    2
   148   238   237    1
   149    86    89    1
   150    86    85    1
   151    86    87    1
   152   202   201    2
   153    76    75    1
   154    68    69    1
   155    82    81    1
   156    82    84   am
   157   201   200    1
   158    81    78    1
   159    69    70    1
   160    69    72    1
   161    73    72    1
   162    73    74    1
   163   203   200    1
   164   203   204    1
   165    87    88    2
   166   153   151   am
   167    70    71    2
   168    79    78    1
   169    79    80    2
   170    78    77    1
   171   200   199    1
   172    75    74    1
   173   178   177    1
   174   195   193   ar
   175   195   197   ar
   176   198   197    1
   177   204   205    1
   178   151   150    1
   179   151   152    2
   180   177   174    1
   181   193   192   ar
   182   197   196   ar
   183   199   205    1
   184   199   189   am
   185   150   149    1
   186   186   184   am
   187   190   189    2
   188   176   175    2
   189   189   188    1
   190   163   162   ar
   191   163   161   ar
   192   149   146    1
   193   175   174    1
   194   174   173    1
   195   162   160   ar
   196   192   191    1
   197   192   194   ar
   198   196   194   ar
   199   184   183    1
   200   184   185    2
   201   107   105   am
   202   179   180    1
   203   183   180    1
   204   146   147    1
   205   146   145    1
   206   161   159   ar
   207   106   105    2
   208   148   147    2
   209   191   188    1
   210   182   181    2
   211   171   172    1
   212   171   170    1
   213   188   187    1
   214   160   159   ar
   215   105   104    1
   216   180   181    1
   217   159   158    1
   218   170   169    1
   219   169   168    1
   220   104   103    1
   221   158   155    1
   222   103   100    1
   223   157   156    2
   224   168   165    1
   225   155   156    1
   226   155   154    1
   227   100   101    1
   228   100    99    1
   229   101   102    2
   230   165   164    1
   231   165   166    1
   232   167   166    2
