@<TRIPOS>MOLECULE
tmp/2ze9A00.pdb
 92 91 0 0 0
SMALL
GASTEIGER

@<TRIPOS>ATOM
      1  N          7.3920    5.0140   24.6540 N.3   122  ALA122     -0.1245
      2  CA         6.7400    6.2600   24.2440 C.3   122  ALA122      0.1562
      3  C          5.2450    6.0070   24.0480 C.2   122  ALA122      0.2260
      4  O          4.8720    5.0750   23.3250 O.2   122  ALA122     -0.2867
      5  CB         7.3770    6.7800   22.9310 C.3   122  ALA122      0.0290
      6  N          1.6290    6.5250   22.3990 N.3   124  PRO124     -0.2116
      7  CA         1.3160    6.9260   21.0120 C.3   124  PRO124      0.1372
      8  C          0.9770    8.4140   20.7380 C.2   124  PRO124      0.2244
      9  O          1.1290    8.8280   19.5790 O.2   124  PRO124     -0.2868
     10  CB         0.1560    5.9760   20.5900 C.3   124  PRO124      0.0268
     11  CG        -0.4170    5.4500   21.8940 C.3   124  PRO124      0.0207
     12  CD         0.7470    5.4320   22.8670 C.3   124  PRO124      0.0892
     13  N          4.5470   12.1480   21.7910 N.3   127  HIS127     -0.1241
     14  CA         5.9960   12.0540   21.5120 C.3   127  HIS127      0.1621
     15  C          6.6380   13.0900   20.5930 C.2   127  HIS127      0.2264
     16  O          6.6370   12.8990   19.3600 O.2   127  HIS127     -0.2867
     17  CB         6.5720   10.6360   21.2840 C.3   127  HIS127      0.0745
     18  CG         5.6000    9.6100   20.7850 C.ar  127  HIS127      0.0817
     19  ND1        4.7400    9.8300   19.7320 N.ar  127  HIS127     -0.2268
     20  CD2        5.4210    8.3160   21.1520 C.ar  127  HIS127      0.1154
     21  CE1        4.0480    8.7280   19.4970 C.ar  127  HIS127      0.1986
     22  NE2        4.4490    7.7920   20.3400 N.ar  127  HIS127     -0.2212
     23  N         10.1290   13.6880   21.3070 N.3   130  VAL130     -0.1245
     24  CA        10.9900   12.4740   21.6980 C.3   130  VAL130      0.1561
     25  C         11.8800   11.7720   20.6230 C.2   130  VAL130      0.2260
     26  O         11.4340   10.8540   19.9430 O.2   130  VAL130     -0.2867
     27  CB        10.2650   11.3930   22.6040 C.3   130  VAL130      0.0252
     28  CG1        9.2500   10.6150   21.8290 C.3   130  VAL130      0.0019
     29  CG2       11.2800   10.4260   23.1560 C.3   130  VAL130      0.0019
     30  N         13.5270    4.7130   21.1060 N.3   156  SER156     -0.1202
     31  CA        12.2240    4.9270   21.6640 C.3   156  SER156      0.2020
     32  C         11.2870    3.9460   20.9980 C.2   156  SER156      0.2619
     33  O         11.4620    3.6490   19.8080 O.2   156  SER156     -0.2717
     34  CB        11.7720    6.3670   21.4980 C.3   156  SER156      0.2103
     35  OG        11.6390    6.7220   20.1500 O.3   156  SER156     -0.2182
     36  N         10.3300    3.4040   21.7480 N.am  157  MET157     -0.1965
     37  CA         9.5180    2.2380   21.2700 C.3   157  MET157      0.1736
     38  C          8.0750    2.2340   21.8070 C.2   157  MET157      0.2617
     39  O          7.7870    2.6370   22.9400 O.2   157  MET157     -0.2715
     40  CB        10.1920    0.8910   21.6030 C.3   157  MET157      0.0427
     41  CG        10.4880    0.6930   23.1450 C.3   157  MET157      0.0599
     42  SD         9.0330   -0.0070   24.0150 S.3   157  MET157     -0.1393
     43  CE         9.7000   -1.6890   24.2880 C.3   157  MET157      0.0692
     44  N          7.1630    1.7810   20.9670 N.am  158  THR158     -0.1951
     45  CA         5.7680    1.5860   21.3570 C.3   158  THR158      0.1897
     46  C          5.3990    0.2230   20.8110 C.2   158  THR158      0.2313
     47  O          5.3990    0.0300   19.5950 O.2   158  THR158     -0.2863
     48  CB         4.8770    2.6490   20.7390 C.3   158  THR158      0.1794
     49  OG1        5.3810    3.9410   21.1000 O.3   158  THR158     -0.2208
     50  CG2        3.4010    2.4760   21.2340 C.3   158  THR158      0.0378
     51  N          9.1330    1.8330   11.6560 N.3   231  PRO231     -0.2102
     52  CA         9.3110    3.1380   12.3090 C.3   231  PRO231      0.1504
     53  C          8.1240    3.6790   13.0930 C.2   231  PRO231      0.2576
     54  O          8.3310    4.6040   13.9500 O.2   231  PRO231     -0.2718
     55  CB         9.6620    4.0580   11.1480 C.3   231  PRO231      0.0282
     56  CG        10.2770    3.0860   10.1750 C.3   231  PRO231      0.0208
     57  CD         9.3610    1.9360   10.2200 C.3   231  PRO231      0.0893
     58  N          6.9240    3.1420   12.8210 N.am  232  ALA232     -0.1966
     59  CA         5.7440    3.3940   13.6880 C.3   232  ALA232      0.1728
     60  C          5.9120    2.8080   15.0880 C.2   232  ALA232      0.2616
     61  O          5.3020    3.3020   16.0150 O.2   232  ALA232     -0.2715
     62  CB         4.4270    2.9020   13.0610 C.3   232  ALA232      0.0334
     63  N          6.7760    1.7940   15.2490 N.am  233  LYS233     -0.1963
     64  CA         6.9540    1.1330   16.5660 C.3   233  LYS233      0.1728
     65  C          8.2510    1.5170   17.2490 C.2   233  LYS233      0.2616
     66  O          8.2750    1.7370   18.4520 O.2   233  LYS233     -0.2715
     67  CB         6.9060   -0.3880   16.4360 C.3   233  LYS233      0.0311
     68  CG         5.5790   -0.9350   15.9610 C.3   233  LYS233      0.0038
     69  CD         5.6330   -2.4510   15.9590 C.3   233  LYS233      0.0206
     70  CE         4.2630   -3.0160   15.6250 C.3   233  LYS233      0.1093
     71  NZ         4.3580   -4.4690   15.2910 N.3   233  LYS233     -0.1314
     72  N          9.3350    1.5640   16.4650 N.am  234  VAL234     -0.1963
     73  CA        10.6850    1.8470   16.9720 C.3   234  VAL234      0.1727
     74  C         11.3700    2.9770   16.1850 C.2   234  VAL234      0.2616
     75  O         11.4040    2.9550   14.9120 O.2   234  VAL234     -0.2715
     76  CB        11.5980    0.5910   16.9050 C.3   234  VAL234      0.0290
     77  CG1       13.1080    0.9570   17.3290 C.3   234  VAL234      0.0023
     78  CG2       11.0490   -0.4880   17.7580 C.3   234  VAL234      0.0023
     79  N         11.8980    3.9600   16.9360 N.am  235  TRP235     -0.1974
     80  CA        12.9510    4.8540   16.4240 C.3   235  TRP235      0.1640
     81  C         14.2680    4.5030   17.0760 C.2   235  TRP235      0.2290
     82  O         14.3370    4.3750   18.2890 O.2   235  TRP235     -0.2864
     83  CB        12.6480    6.3250   16.6560 C.3   235  TRP235      0.0576
     84  CG        11.5190    6.9240   15.7950 C.ar  235  TRP235      0.0006
     85  CD1       10.9610    6.3930   14.6570 C.ar  235  TRP235      0.0946
     86  CD2       10.8670    8.1650   16.0140 C.ar  235  TRP235      0.0152
     87  NE1        9.9540    7.1950   14.1840 N.ar  235  TRP235     -0.2442
     88  CE2        9.8930    8.3200   14.9600 C.ar  235  TRP235      0.0810
     89  CE3       10.9960    9.1710   16.9890 C.ar  235  TRP235      0.0012
     90  CZ2        9.0620    9.4690   14.8370 C.ar  235  TRP235      0.0191
     91  CZ3       10.1700   10.3130   16.8820 C.ar  235  TRP235      0.0001
     92  CH2        9.2050   10.4510   15.7990 C.ar  235  TRP235      0.0015
@<TRIPOS>BOND
     1    56    57    1
     2    56    55    1
     3    57    51    1
     4    55    52    1
     5    51    52    1
     6    52    53    1
     7    58    53   am
     8    58    59    1
     9    62    59    1
    10    53    54    2
    11    59    60    1
    12    87    85   ar
    13    87    88   ar
    14    85    84   ar
    15    90    88   ar
    16    90    92   ar
    17    75    74    2
    18    88    86   ar
    19    60    63   am
    20    60    61    2
    21    63    64    1
    22    71    70    1
    23    70    69    1
    24    84    86   ar
    25    84    83    1
    26    92    91   ar
    27    69    68    1
    28    68    67    1
    29    86    89   ar
    30    74    79   am
    31    74    73    1
    32    80    83    1
    33    80    79    1
    34    80    81    1
    35    67    64    1
    36    72    73    1
    37    72    65   am
    38    64    65    1
    39    91    89   ar
    40    76    73    1
    41    76    77    1
    42    76    78    1
    43    81    82    2
    44    65    66    2
    45    16    15    2
    46    21    19   ar
    47    21    22   ar
    48     9     8    2
    49    47    46    2
    50    19    18   ar
    51    33    32    2
    52    26    25    2
    53    35    34    1
    54    22    20   ar
    55    10     7    1
    56    10    11    1
    57    15    14    1
    58    25    24    1
    59     8     7    1
    60    48    49    1
    61    48    50    1
    62    48    45    1
    63    18    20   ar
    64    18    17    1
    65    46    45    1
    66    44    45    1
    67    44    38   am
    68    32    31    1
    69    32    36   am
    70     7     6    1
    71    30    31    1
    72    37    40    1
    73    37    36    1
    74    37    38    1
    75    17    14    1
    76    23    24    1
    77    34    31    1
    78    14    13    1
    79    40    41    1
    80    24    27    1
    81    38    39    2
    82    28    27    1
    83    11    12    1
    84     6    12    1
    85    27    29    1
    86     5     2    1
    87    41    42    1
    88     4     3    2
    89    42    43    1
    90     3     2    1
    91     2     1    1
