@<TRIPOS>MOLECULE
tmp/2zebA00.pdb
 142 140 0 0 0
SMALL
GASTEIGER

@<TRIPOS>ATOM
      1  N         20.9820  -73.2290  -94.5500 N.3    44  HIS44      -0.1241
      2  CA        22.1800  -74.0740  -94.4790 C.3    44  HIS44       0.1621
      3  C         21.9080  -75.5180  -94.8800 C.2    44  HIS44       0.2264
      4  O         22.8360  -76.2880  -95.0830 O.2    44  HIS44      -0.2867
      5  CB        22.8570  -74.0270  -93.1030 C.3    44  HIS44       0.0745
      6  CG        22.1710  -74.8530  -92.0660 C.ar   44  HIS44       0.0817
      7  ND1       21.3120  -74.3140  -91.1340 N.ar   44  HIS44      -0.2268
      8  CD2       22.2210  -76.1790  -91.8070 C.ar   44  HIS44       0.1154
      9  CE1       20.8590  -75.2720  -90.3470 C.ar   44  HIS44       0.1986
     10  NE2       21.3920  -76.4140  -90.7340 N.ar   44  HIS44      -0.2212
     11  N         25.7940  -68.8730  -88.2000 N.3    87  GLN87      -0.1245
     12  CA        26.2050  -67.9880  -87.1170 C.3    87  GLN87       0.1566
     13  C         26.1890  -66.5240  -87.5410 C.2    87  GLN87       0.2260
     14  O         26.0000  -65.6240  -86.7150 O.2    87  GLN87      -0.2867
     15  CB        27.5650  -68.3720  -86.5540 C.3    87  GLN87       0.0367
     16  CG        27.5450  -69.6560  -85.7490 C.3    87  GLN87       0.0905
     17  CD        27.6620  -70.8780  -86.6280 C.2    87  GLN87       0.2608
     18  OE1       28.2240  -70.8080  -87.7200 O.2    87  GLN87      -0.2717
     19  NE2       27.1330  -72.0070  -86.1620 N.am   87  GLN87      -0.0878
     20  N         23.5070  -85.9900  -78.8380 N.3   135  ASN135     -0.1240
     21  CA        24.7270  -85.7480  -79.5780 C.3   135  ASN135      0.1653
     22  C         25.3030  -87.0550  -80.0980 C.2   135  ASN135      0.2266
     23  O         25.6320  -87.9580  -79.3240 O.2   135  ASN135     -0.2867
     24  CB        25.7440  -85.0500  -78.6920 C.3   135  ASN135      0.1155
     25  CG        25.3010  -83.6740  -78.2940 C.2   135  ASN135      0.2627
     26  OD1       24.8700  -83.4560  -77.1640 O.2   135  ASN135     -0.2716
     27  ND2       25.3850  -82.7320  -79.2250 N.am  135  ASN135     -0.0877
     28  N         15.4980  -80.2800  -76.6050 N.3   188  ASP188     -0.1225
     29  CA        16.1990  -79.5680  -77.6640 C.3   188  ASP188      0.1805
     30  C         16.0010  -80.2280  -79.0310 C.2   188  ASP188      0.2598
     31  O         15.4880  -81.3460  -79.1420 O.2   188  ASP188     -0.2718
     32  CB        17.6950  -79.4890  -77.3280 C.3   188  ASP188      0.1424
     33  CG        18.4200  -78.3490  -78.0650 C.2   188  ASP188      0.3668
     34  OD1       17.7470  -77.5660  -78.7710 O.co2 188  ASP188     -0.2456
     35  OD2       19.6700  -78.2300  -77.9430 O.co2 188  ASP188     -0.2456
     36  N         16.3970  -79.5180  -80.0770 N.am  189  SER189     -0.1938
     37  CA        16.4600  -80.0770  -81.4200 C.3   189  SER189      0.2055
     38  C         17.9150  -80.4110  -81.6760 C.2   189  SER189      0.2643
     39  O         18.8080  -79.9540  -80.9470 O.2   189  SER189     -0.2714
     40  CB        16.0110  -79.0420  -82.4300 C.3   189  SER189      0.2130
     41  OG        16.8080  -77.8790  -82.2920 O.3   189  SER189     -0.2179
     42  N         18.1670  -81.2010  -82.7100 N.am  190  CYS190     -0.1953
     43  CA        19.5210  -81.6680  -82.9730 C.3   190  CYS190      0.1843
     44  C         19.7820  -81.8390  -84.4730 C.2   190  CYS190      0.2625
     45  O         18.9170  -81.5700  -85.3050 O.2   190  CYS190     -0.2714
     46  CB        19.7840  -82.9720  -82.2040 C.3   190  CYS190      0.0997
     47  SG        21.5340  -83.2510  -81.7910 S.3   190  CYS190     -0.0797
     48  N         20.9900  -82.2640  -84.8130 N.am  191  GLN191     -0.1977
     49  CA        21.3300  -82.5350  -86.1950 C.3   191  GLN191      0.1601
     50  C         20.2440  -83.3640  -86.8620 C.2   191  GLN191      0.2287
     51  O         19.8040  -84.3770  -86.3190 O.2   191  GLN191     -0.2864
     52  CB        22.6550  -83.2600  -86.2540 C.3   191  GLN191      0.0394
     53  CG        23.0540  -83.7220  -87.6270 C.3   191  GLN191      0.0908
     54  CD        24.4930  -84.1780  -87.6450 C.2   191  GLN191      0.2608
     55  OE1       25.4050  -83.4000  -87.3360 O.2   191  GLN191     -0.2717
     56  NE2       24.7100  -85.4450  -87.9820 N.am  191  GLN191     -0.0878
     57  N         17.2620  -79.6900  -88.3110 N.3   194  SER194     -0.1217
     58  CA        17.5200  -78.4220  -89.0070 C.3   194  SER194      0.1889
     59  C         16.4360  -78.0420  -90.0160 C.2   194  SER194      0.2288
     60  O         15.8700  -78.9090  -90.6930 O.2   194  SER194     -0.2866
     61  CB        18.8780  -78.4620  -89.7150 C.3   194  SER194      0.2089
     62  OG        19.9400  -78.5630  -88.7830 O.3   194  SER194     -0.2183
     63  N         14.6230  -74.1800  -87.1610 N.3   212  VAL212     -0.1231
     64  CA        15.7550  -74.7900  -86.4560 C.3   212  VAL212      0.1692
     65  C         17.0760  -74.4740  -87.1640 C.2   212  VAL212      0.2593
     66  O         17.2350  -74.7980  -88.3420 O.2   212  VAL212     -0.2718
     67  CB        15.5790  -76.3460  -86.3590 C.3   212  VAL212      0.0266
     68  CG1       16.8620  -77.0360  -85.8580 C.3   212  VAL212      0.0020
     69  CG2       14.3840  -76.6980  -85.4830 C.3   212  VAL212      0.0020
     70  N         18.0320  -73.8720  -86.4580 N.am  213  SER213     -0.1938
     71  CA        19.2110  -73.3340  -87.1430 C.3   213  SER213      0.2055
     72  C         20.5610  -73.9010  -86.7230 C.2   213  SER213      0.2643
     73  O         21.2980  -74.4120  -87.5500 O.2   213  SER213     -0.2714
     74  CB        19.2490  -71.7940  -87.0470 C.3   213  SER213      0.2130
     75  OG        20.3240  -71.2620  -87.8160 O.3   213  SER213     -0.2179
     76  N         20.9120  -73.7620  -85.4520 N.am  214  TRP214     -0.1959
     77  CA        22.2410  -74.1560  -85.0020 C.3   214  TRP214      0.1771
     78  C         22.3370  -74.1440  -83.4910 C.2   214  TRP214      0.2620
     79  O         21.3390  -73.9900  -82.7960 O.2   214  TRP214     -0.2715
     80  CB        23.3330  -73.2620  -85.6220 C.3   214  TRP214      0.0590
     81  CG        23.3640  -71.8190  -85.1230 C.ar  214  TRP214      0.0006
     82  CD1       22.5500  -70.7890  -85.5150 C.ar  214  TRP214      0.0946
     83  CD2       24.2700  -71.2650  -84.1610 C.ar  214  TRP214      0.0152
     84  NE1       22.8830  -69.6400  -84.8430 N.ar  214  TRP214     -0.2442
     85  CE2       23.9360  -69.9020  -84.0080 C.ar  214  TRP214      0.0810
     86  CE3       25.3180  -71.7910  -83.4050 C.ar  214  TRP214      0.0012
     87  CZ2       24.6250  -69.0540  -83.1370 C.ar  214  TRP214      0.0191
     88  CZ3       26.0050  -70.9410  -82.5340 C.ar  214  TRP214      0.0001
     89  CH2       25.6530  -69.5870  -82.4110 C.ar  214  TRP214      0.0015
     90  N         23.5510  -74.3270  -82.9910 N.am  215  GLY215     -0.1940
     91  CA        23.8140  -74.2710  -81.5650 C.3   215  GLY215      0.2014
     92  C         25.1070  -74.9920  -81.2660 C.2   215  GLY215      0.2639
     93  O         25.6430  -75.6900  -82.1240 O.2   215  GLY215     -0.2714
     94  N         25.6240  -74.8240  -80.0600 N.am  216  GLU216     -0.1963
     95  CA        26.8030  -75.5860  -79.6820 C.3   216  GLU216      0.1733
     96  C         26.3720  -76.9410  -79.1320 C.2   216  GLU216      0.2617
     97  O         25.9890  -77.0690  -77.9580 O.2   216  GLU216     -0.2715
     98  CB        27.6870  -74.8050  -78.7020 C.3   216  GLU216      0.0429
     99  CG        28.5740  -73.7750  -79.3890 C.3   216  GLU216      0.1163
    100  CD        29.3080  -72.8870  -78.3960 C.2   216  GLU216      0.3649
    101  OE1       29.9760  -73.4400  -77.4930 O.co2 216  GLU216     -0.2457
    102  OE2       29.2040  -71.6410  -78.5060 O.co2 216  GLU216     -0.2457
    103  N         26.4110  -77.9390  -80.0130 N.am  217  GLY217     -0.1940
    104  CA        25.8670  -79.2550  -79.7230 C.3   217  GLY217      0.2014
    105  C         24.3780  -79.2210  -79.3910 C.2   217  GLY217      0.2639
    106  O         23.6610  -78.2690  -79.7310 O.2   217  GLY217     -0.2714
    107  N         23.9190  -80.2580  -78.7030 N.am  218  CYS218     -0.1967
    108  CA        22.5090  -80.4130  -78.3940 C.3   218  CYS218      0.1712
    109  C         22.3060  -80.6330  -76.8990 C.2   218  CYS218      0.2296
    110  O         22.9260  -81.5150  -76.3130 O.2   218  CYS218     -0.2864
    111  CB        21.9380  -81.5940  -79.1790 C.3   218  CYS218      0.0983
    112  SG        22.3430  -81.5640  -80.9520 S.3   218  CYS218     -0.0798
    113  N         23.8690  -73.9540  -73.3820 N.3   223  ARG223     -0.1231
    114  CA        23.8220  -73.8180  -74.8420 C.3   223  ARG223      0.1679
    115  C         22.4350  -74.1480  -75.4220 C.2   223  ARG223      0.2434
    116  O         22.2290  -75.1980  -76.0160 O.2   223  ARG223     -0.2733
    117  CB        24.9040  -74.6850  -75.4830 C.3   223  ARG223      0.0321
    118  CG        26.3190  -74.3160  -75.0570 C.3   223  ARG223      0.0489
    119  CD        26.6280  -72.8430  -75.3440 C.3   223  ARG223      0.2205
    120  NE        28.0540  -72.5590  -75.1770 N.pl3 223  ARG223     -0.0865
    121  CZ        28.5930  -71.9780  -74.1080 C.cat 223  ARG223      0.5346
    122  NH1       27.8360  -71.5970  -73.0870 N.pl3 223  ARG223      0.1354
    123  NH2       29.8990  -71.7720  -74.0690 N.pl3 223  ARG223      0.1354
    124  N         21.4670  -73.2520  -75.2250 N.am  224  PRO224     -0.2718
    125  CA        20.1200  -73.4630  -75.7650 C.3   224  PRO224      0.1535
    126  C         20.1360  -73.5340  -77.2890 C.2   224  PRO224      0.2599
    127  O         21.0060  -72.9450  -77.9170 O.2   224  PRO224     -0.2715
    128  CB        19.3710  -72.1940  -75.3390 C.3   224  PRO224      0.0310
    129  CG        20.1450  -71.6550  -74.1860 C.3   224  PRO224      0.0237
    130  CD        21.5720  -72.0020  -74.4560 C.3   224  PRO224      0.0939
    131  N         19.1740  -74.2320  -77.8770 N.am  225  GLY225     -0.1941
    132  CA        19.0350  -74.2280  -79.3180 C.3   225  GLY225      0.2014
    133  C         18.7570  -72.8370  -79.8610 C.2   225  GLY225      0.2638
    134  O         18.1220  -71.9930  -79.1940 O.2   225  GLY225     -0.2714
    135  N         19.2320  -72.5910  -81.0810 N.am  226  ILE226     -0.1977
    136  CA        19.0290  -71.2990  -81.7250 C.3   226  ILE226      0.1596
    137  C         18.2280  -71.4170  -83.0230 C.2   226  ILE226      0.2287
    138  O         18.5090  -72.2580  -83.8700 O.2   226  ILE226     -0.2864
    139  CB        20.3490  -70.6160  -81.9910 C.3   226  ILE226      0.0276
    140  CG1       21.0290  -70.3120  -80.6540 C.3   226  ILE226      0.0022
    141  CG2       20.1160  -69.3310  -82.7430 C.3   226  ILE226      0.0022
    142  CD1       22.5180  -70.0410  -80.7770 C.3   226  ILE226      0.0001
@<TRIPOS>BOND
     1     4     3    2
     2     3     2    1
     3     1     2    1
     4     2     5    1
     5     5     6    1
     6     6     8   ar
     7     6     7   ar
     8     8    10   ar
     9     7     9   ar
    10    10     9   ar
    11    60    59    2
    12    59    58    1
    13    61    58    1
    14    61    62    1
    15    58    57    1
    16    66    65    2
    17    11    12    1
    18    56    54   am
    19    75    74    1
    20    18    17    2
    21    54    53    1
    22    54    55    2
    23    53    52    1
    24    73    72    2
    25    13    12    1
    26    13    14    2
    27    65    70   am
    28    65    64    1
    29    63    64    1
    30    71    74    1
    31    71    72    1
    32    71    70    1
    33    12    15    1
    34    50    51    2
    35    50    49    1
    36    72    76   am
    37    17    19   am
    38    17    16    1
    39    15    16    1
    40    64    67    1
    41    67    68    1
    42    67    69    1
    43    52    49    1
    44    49    48    1
    45    80    81    1
    46    80    77    1
    47    82    81   ar
    48    82    84   ar
    49    76    77    1
    50    45    44    2
    51    81    83   ar
    52    77    78    1
    53    84    85   ar
    54    48    44   am
    55    44    43    1
    56    83    85   ar
    57    83    86   ar
    58    85    87   ar
    59   138   137    2
    60    78    90   am
    61    78    79    2
    62    86    88   ar
    63    87    89   ar
    64   137   136    1
    65    90    91    1
    66    43    42    1
    67    43    46    1
    68   141   139    1
    69    42    38   am
    70    88    89   ar
    71    40    41    1
    72    40    37    1
    73    46    47    1
    74    93    92    2
    75   139   136    1
    76   139   140    1
    77    47   112    1
    78   136   135    1
    79    38    37    1
    80    38    39    2
    81    91    92    1
    82    37    36    1
    83    92    94   am
    84   135   133   am
    85   112   111    1
    86   142   140    1
    87    22    21    1
    88    22    23    2
    89    36    30   am
    90    94    95    1
    91   103   104    1
    92   103    96   am
    93   133   132    1
    94   133   134    2
    95   106   105    2
    96   104   105    1
    97    95    96    1
    98    95    98    1
    99    21    20    1
   100    21    24    1
   101   105   107   am
   102    99    98    1
   103    99   100    1
   104   132   131    1
   105    27    25   am
   106   111   108    1
   107    31    30    2
   108    96    97    2
   109    30    29    1
   110    34    33   ar
   111   107   108    1
   112    24    25    1
   113   102   100   ar
   114   100   101   ar
   115   108   109    1
   116    25    26    2
   117    33    35   ar
   118    33    32    1
   119   127   126    2
   120   131   126   am
   121    29    32    1
   122    29    28    1
   123   126   125    1
   124   109   110    2
   125   116   115    2
   126   125   128    1
   127   125   124    1
   128   117   118    1
   129   117   114    1
   130   115   124   am
   131   115   114    1
   132   119   120    1
   133   119   118    1
   134   128   129    1
   135   124   130    1
   136   120   121    2
   137   114   113    1
   138   130   129    1
   139   121   123    1
   140   121   122    1
