@<TRIPOS>MOLECULE
tmp/2zecB00.pdb
 127 124 0 0 0
SMALL
GASTEIGER

@<TRIPOS>ATOM
      1  N         47.6470  116.5130   92.0120 N.3    44  HIS44      -0.1241
      2  CA        46.4670  115.6440   92.1360 C.3    44  HIS44       0.1621
      3  C         46.8270  114.2060   92.4910 C.2    44  HIS44       0.2264
      4  O         45.9480  113.3940   92.7740 O.2    44  HIS44      -0.2867
      5  CB        45.5670  115.6830   90.8860 C.3    44  HIS44       0.0745
      6  CG        46.0230  114.7900   89.7700 C.ar   44  HIS44       0.0817
      7  ND1       46.6100  115.2770   88.6210 N.ar   44  HIS44      -0.2268
      8  CD2       45.9660  113.4440   89.6200 C.ar   44  HIS44       0.1154
      9  CE1       46.9050  114.2700   87.8170 C.ar   44  HIS44       0.1986
     10  NE2       46.5220  113.1470   88.3990 N.ar   44  HIS44      -0.2212
     11  N         41.4650  120.8360   86.7970 N.3    87  GLN87      -0.1245
     12  CA        40.8520  121.7920   85.8670 C.3    87  GLN87       0.1566
     13  C         41.0340  123.2400   86.3270 C.2    87  GLN87       0.2260
     14  O         41.1300  124.1580   85.5160 O.2    87  GLN87      -0.2867
     15  CB        39.3620  121.4980   85.6350 C.3    87  GLN87       0.0367
     16  CG        39.0690  120.1410   84.9870 C.3    87  GLN87       0.0905
     17  CD        39.3490  118.9960   85.9370 C.2    87  GLN87       0.2608
     18  OE1       39.0130  119.0650   87.1190 O.2    87  GLN87      -0.2717
     19  NE2       39.9960  117.9470   85.4350 N.am   87  GLN87      -0.0878
     20  N         48.9390  109.6950   73.3140 N.3   188  ASP188     -0.1225
     21  CA        48.5000  110.4350   74.4970 C.3   188  ASP188      0.1805
     22  C         49.0430  109.8290   75.7930 C.2   188  ASP188      0.2598
     23  O         49.5970  108.7200   75.8010 O.2   188  ASP188     -0.2718
     24  CB        46.9670  110.4740   74.5460 C.3   188  ASP188      0.1424
     25  CG        46.4230  111.6790   75.3180 C.2   188  ASP188      0.3668
     26  OD1       47.2210  112.4630   75.8870 O.co2 188  ASP188     -0.2456
     27  OD2       45.1820  111.8340   75.3500 O.co2 188  ASP188     -0.2456
     28  N         48.9000  110.5820   76.8780 N.am  189  SER189     -0.1938
     29  CA        49.1260  110.0650   78.2170 C.3   189  SER189      0.2055
     30  C         47.7710  109.6280   78.7330 C.2   189  SER189      0.2643
     31  O         46.7370  109.9420   78.1360 O.2   189  SER189     -0.2714
     32  CB        49.7040  111.1430   79.1260 C.3   189  SER189      0.2130
     33  OG        48.8730  112.2850   79.1210 O.3   189  SER189     -0.2179
     34  N         47.7630  108.9050   79.8400 N.am  190  CYS190     -0.1953
     35  CA        46.5140  108.3830   80.3680 C.3   190  CYS190      0.1843
     36  C         46.7040  108.0680   81.8440 C.2   190  CYS190      0.2625
     37  O         47.7500  108.3670   82.4190 O.2   190  CYS190     -0.2714
     38  CB        46.0790  107.1410   79.5790 C.3   190  CYS190      0.1000
     39  SG        44.3180  106.6980   79.7400 S.3   190  CYS190     -0.0756
     40  N         45.6940  107.4620   82.4480 N.am  191  GLN191     -0.1977
     41  CA        45.6810  107.2380   83.8820 C.3   191  GLN191      0.1601
     42  C         46.8490  106.3710   84.3410 C.2   191  GLN191      0.2287
     43  O         47.0620  105.2780   83.8280 O.2   191  GLN191     -0.2864
     44  CB        44.3380  106.6350   84.2910 C.3   191  GLN191      0.0394
     45  CG        44.3330  105.9610   85.6310 C.3   191  GLN191      0.0908
     46  CD        42.9420  105.5200   86.0310 C.2   191  GLN191      0.2608
     47  OE1       42.6690  104.3250   86.1760 O.2   191  GLN191     -0.2717
     48  NE2       42.0470  106.4820   86.1920 N.am  191  GLN191     -0.0878
     49  N         49.9420  110.1640   85.1070 N.3   194  SER194     -0.1217
     50  CA        49.8300  111.4340   85.8280 C.3   194  SER194      0.1889
     51  C         51.0650  111.6960   86.6690 C.2   194  SER194      0.2288
     52  O         51.6150  110.7800   87.2770 O.2   194  SER194     -0.2866
     53  CB        48.5880  111.4420   86.7320 C.3   194  SER194      0.2089
     54  OG        47.4000  111.3670   85.9670 O.3   194  SER194     -0.2183
     55  N         52.2370  115.6130   83.3020 N.3   212  VAL212     -0.1231
     56  CA        50.9540  114.9670   82.9830 C.3   212  VAL212      0.1692
     57  C         49.8970  115.3600   84.0150 C.2   212  VAL212      0.2593
     58  O         50.0600  115.1020   85.2000 O.2   212  VAL212     -0.2718
     59  CB        51.0500  113.4170   82.9330 C.3   212  VAL212      0.0266
     60  CG1       49.7300  112.8140   82.4550 C.3   212  VAL212      0.0020
     61  CG2       52.2020  112.9540   82.0460 C.3   212  VAL212      0.0020
     62  N         48.8100  115.9830   83.5680 N.am  213  SER213     -0.1938
     63  CA        47.8070  116.4850   84.5050 C.3   213  SER213      0.2055
     64  C         46.3960  115.9030   84.3290 C.2   213  SER213      0.2643
     65  O         45.8890  115.2180   85.2170 O.2   213  SER213     -0.2714
     66  CB        47.7760  118.0130   84.4730 C.3   213  SER213      0.2130
     67  OG        46.8960  118.5330   85.4510 O.3   213  SER213     -0.2179
     68  N         45.7490  116.1890   83.2050 N.am  214  TRP214     -0.1959
     69  CA        44.3830  115.7200   83.0040 C.3   214  TRP214      0.1771
     70  C         43.9800  115.7840   81.5390 C.2   214  TRP214      0.2620
     71  O         44.8180  115.9710   80.6630 O.2   214  TRP214     -0.2715
     72  CB        43.3980  116.5390   83.8500 C.3   214  TRP214      0.0590
     73  CG        43.3030  117.9880   83.4340 C.ar  214  TRP214      0.0006
     74  CD1       44.2520  118.9700   83.6260 C.ar  214  TRP214      0.0946
     75  CD2       42.2030  118.6240   82.7580 C.ar  214  TRP214      0.0152
     76  NE1       43.8010  120.1670   83.1150 N.ar  214  TRP214     -0.2442
     77  CE2       42.5490  119.9860   82.5850 C.ar  214  TRP214      0.0810
     78  CE3       40.9570  118.1800   82.2950 C.ar  214  TRP214      0.0012
     79  CZ2       41.6950  120.9010   81.9550 C.ar  214  TRP214      0.0191
     80  CZ3       40.1060  119.0900   81.6750 C.ar  214  TRP214      0.0001
     81  CH2       40.4820  120.4350   81.5090 C.ar  214  TRP214      0.0015
     82  N         42.6810  115.6300   81.2990 N.am  215  GLY215     -0.1940
     83  CA        42.1020  115.6770   79.9700 C.3   215  GLY215      0.2014
     84  C         40.7820  114.9420   80.0570 C.2   215  GLY215      0.2639
     85  O         40.5070  114.3060   81.0750 O.2   215  GLY215     -0.2714
     86  N         39.9530  115.0300   79.0220 N.am  216  GLU216     -0.1963
     87  CA        38.7450  114.2110   78.9760 C.3   216  GLU216      0.1733
     88  C         39.0540  112.8880   78.2780 C.2   216  GLU216      0.2617
     89  O         39.1470  112.8250   77.0550 O.2   216  GLU216     -0.2715
     90  CB        37.6010  114.9420   78.2760 C.3   216  GLU216      0.0429
     91  CG        37.2960  116.3250   78.8430 C.3   216  GLU216      0.1163
     92  CD        36.0900  116.9770   78.1810 C.2   216  GLU216      0.3649
     93  OE1       35.4430  116.3160   77.3360 O.co2 216  GLU216     -0.2457
     94  OE2       35.7900  118.1480   78.5130 O.co2 216  GLU216     -0.2457
     95  N         39.2340  111.8330   79.0650 N.am  217  GLY217     -0.1940
     96  CA        39.6350  110.5480   78.5190 C.3   217  GLY217      0.2014
     97  C         41.0540  110.5880   77.9780 C.2   217  GLY217      0.2642
     98  O         41.8630  111.4400   78.3590 O.2   217  GLY217     -0.2714
     99  N         41.3610  109.6570   77.0830 N.am  218  CYS218     -0.1925
    100  CA        42.6840  109.5770   76.4910 C.3   218  CYS218      0.1884
    101  C         42.5360  109.3520   74.9990 C.2   218  CYS218      0.2338
    102  O         41.7540  108.5020   74.5640 O.2   218  CYS218     -0.2860
    103  CB        43.4820  108.4260   77.1110 C.2   218  CYS218      0.0448
    104  SG        43.3930  108.3180   78.9180 S.3   218  CYS218     -0.0571
    105  N         40.1290  116.3660   72.2780 N.3   223  ARG223     -0.1245
    106  CA        40.4570  116.4060   73.6980 C.3   223  ARG223      0.1563
    107  C         41.9140  116.0070   73.9420 C.2   223  ARG223      0.2260
    108  O         42.1840  114.9940   74.5760 O.2   223  ARG223     -0.2867
    109  CB        39.5100  115.5090   74.4950 C.3   223  ARG223      0.0307
    110  CG        38.0270  115.8270   74.2950 C.3   223  ARG223      0.0489
    111  CD        37.6800  117.2340   74.7630 C.3   223  ARG223      0.2205
    112  NE        36.2390  117.4620   74.7850 N.pl3 223  ARG223     -0.0865
    113  CZ        35.5680  118.1020   73.8330 C.cat 223  ARG223      0.5346
    114  NH1       36.2130  118.5820   72.7760 N.pl3 223  ARG223      0.1354
    115  NH2       34.2540  118.2590   73.9360 N.pl3 223  ARG223      0.1354
    116  N         45.7810  115.8080   75.4270 N.3   225  GLY225     -0.1210
    117  CA        46.2440  115.6750   76.7950 C.3   225  GLY225      0.1956
    118  C         46.7030  116.9970   77.3710 C.2   225  GLY225      0.2611
    119  O         47.3410  117.7900   76.6880 O.2   225  GLY225     -0.2717
    120  N         46.3890  117.2400   78.6400 N.am  226  ILE226     -0.1979
    121  CA        46.7620  118.5040   79.2620 C.3   226  ILE226      0.1595
    122  C         47.8320  118.3130   80.3330 C.2   226  ILE226      0.2287
    123  O         47.7290  117.4410   81.1930 O.2   226  ILE226     -0.2864
    124  CB        45.5280  119.2460   79.8150 C.3   226  ILE226      0.0276
    125  CG1       44.5370  119.5110   78.6740 C.3   226  ILE226      0.0022
    126  CG2       45.9440  120.5450   80.5020 C.3   226  ILE226      0.0022
    127  CD1       43.2070  120.0360   79.1400 C.3   226  ILE226      0.0001
@<TRIPOS>BOND
     1   105   106    1
     2   114   113    1
     3    20    21    1
     4   106   107    1
     5   106   109    1
     6   113   115    1
     7   113   112    2
     8   107   108    2
     9   110   109    1
    10   110   111    1
    11    21    24    1
    12    21    22    1
    13    24    25    1
    14   102   101    2
    15   111   112    1
    16   101   100    1
    17    25    27   ar
    18    25    26   ar
    19   116   117    1
    20    22    23    2
    21    22    28   am
    22   100    99    1
    23   100   103    1
    24   119   118    2
    25   117   118    1
    26    28    29    1
    27    89    88    2
    28    99    97   am
    29   103   104    2
    30    93    92   ar
    31   118   120   am
    32    97    98    2
    33    97    96    1
    34    31    30    2
    35    92    94   ar
    36    92    91    1
    37    29    30    1
    38    29    32    1
    39    90    91    1
    40    90    87    1
    41    88    87    1
    42    88    95   am
    43    96    95    1
    44   120   121    1
    45   125   127    1
    46   125   124    1
    47    30    34   am
    48   104    39    1
    49    87    86    1
    50    86    84   am
    51    33    32    1
    52   121   124    1
    53   121   122    1
    54    38    39    1
    55    38    35    1
    56   124   126    1
    57    34    35    1
    58    83    84    1
    59    83    82    1
    60    84    85    2
    61   122   123    2
    62    35    36    1
    63    71    70    2
    64    82    70   am
    65    81    80   ar
    66    81    79   ar
    67    70    69    1
    68    80    78   ar
    69    36    37    2
    70    36    40   am
    71    79    77   ar
    72    61    59    1
    73    78    75   ar
    74    40    41    1
    75    60    59    1
    76    77    75   ar
    77    77    76   ar
    78    75    73   ar
    79    59    56    1
    80    56    55    1
    81    56    57    1
    82    69    68    1
    83    69    72    1
    84    76    74   ar
    85    68    64   am
    86    73    74   ar
    87    73    72    1
    88    62    57   am
    89    62    63    1
    90    43    42    2
    91    41    44    1
    92    41    42    1
    93    57    58    2
    94    44    45    1
    95    64    63    1
    96    64    65    2
    97    66    63    1
    98    66    67    1
    99    16    15    1
   100    16    17    1
   101    49    50    1
   102    19    17   am
   103    14    13    2
   104    45    46    1
   105    15    12    1
   106    50    51    1
   107    50    53    1
   108    12    13    1
   109    12    11    1
   110    17    18    2
   111    54    53    1
   112    46    47    2
   113    46    48   am
   114    51    52    2
   115     9    10   ar
   116     9     7   ar
   117    10     8   ar
   118     7     6   ar
   119     8     6   ar
   120     6     5    1
   121     5     2    1
   122     1     2    1
   123     2     3    1
   124     3     4    2
