@<TRIPOS>MOLECULE
tmp/2zejB01.pdb
 64 60 0 0 0
SMALL
GASTEIGER

@<TRIPOS>ATOM
      1  N         21.4560   36.2350   37.0750 N.3     7  THR7       -0.1203
      2  CA        20.8960   37.5740   36.9280 C.3     7  THR7        0.1994
      3  C         19.4140   37.6840   37.3910 C.2     7  THR7        0.2618
      4  O         18.6090   36.7940   37.1460 O.2     7  THR7       -0.2717
      5  CB        21.1720   38.1390   35.4970 C.3     7  THR7        0.1784
      6  OG1       22.5880   37.9900   35.2360 O.3     7  THR7       -0.2211
      7  CG2       20.8870   39.6140   35.4510 C.3     7  THR7        0.0376
      8  N         19.1160   38.7650   38.0990 N.am    8  GLY8       -0.1942
      9  CA        17.7780   39.0710   38.5910 C.3     8  GLY8        0.2014
     10  C         17.4460   38.3830   39.9100 C.2     8  GLY8        0.2640
     11  O         16.3030   38.4390   40.3340 O.2     8  GLY8       -0.2714
     12  N         18.4250   37.7380   40.5520 N.am    9  SER9       -0.1935
     13  CA        18.1520   37.0730   41.8410 C.3     9  SER9        0.2055
     14  C         18.1230   38.0050   43.0750 C.2     9  SER9        0.2644
     15  O         17.6480   37.5930   44.1540 O.2     9  SER9       -0.2714
     16  CB        19.0850   35.8850   42.0730 C.3     9  SER9        0.2130
     17  OG        20.4460   36.2900   42.0520 O.3     9  SER9       -0.2179
     18  N         18.6020   39.2500   42.9120 N.am   10  GLY10      -0.1939
     19  CA        18.4980   40.3010   43.9460 C.3    10  GLY10       0.2014
     20  C         19.8540   40.6520   44.5580 C.2    10  GLY10       0.2639
     21  O         19.9100   41.2110   45.6410 O.2    10  GLY10      -0.2714
     22  N         20.9470   40.3140   43.8710 N.am   11  LYS11      -0.1963
     23  CA        22.3210   40.4860   44.4180 C.3    11  LYS11       0.1728
     24  C         22.6180   41.9600   44.7250 C.2    11  LYS11       0.2617
     25  O         23.0730   42.2810   45.8220 O.2    11  LYS11      -0.2715
     26  CB        23.3510   39.9600   43.4350 C.3    11  LYS11       0.0311
     27  CG        23.3250   38.4530   43.2200 C.3    11  LYS11       0.0038
     28  CD        24.4840   37.9850   42.2810 C.3    11  LYS11       0.0206
     29  CE        24.0130   37.8280   40.8060 C.3    11  LYS11       0.1093
     30  NZ        23.2690   38.9360   40.1210 N.3    11  LYS11      -0.1314
     31  N         22.2730   42.8540   43.7940 N.am   12  THR12      -0.1937
     32  CA        22.6420   44.2860   43.9010 C.3    12  THR12       0.2028
     33  C         21.7270   44.9570   44.9310 C.2    12  THR12       0.2642
     34  O         22.1750   45.7640   45.7190 O.2    12  THR12      -0.2714
     35  CB        22.5140   45.0080   42.5350 C.3    12  THR12       0.1808
     36  OG1       23.3850   44.3790   41.5810 O.3    12  THR12      -0.2208
     37  CG2       22.8940   46.5010   42.6440 C.3    12  THR12       0.0379
     38  N         20.4700   44.5580   44.9260 N.am   13  THR13      -0.1950
     39  CA        19.4390   44.9940   45.9100 C.3    13  THR13       0.1897
     40  C         19.8430   44.5550   47.3240 C.2    13  THR13       0.2313
     41  O         19.8180   45.3660   48.2440 O.2    13  THR13      -0.2863
     42  CB        18.0670   44.3480   45.5740 C.3    13  THR13       0.1794
     43  OG1       17.6670   44.7630   44.2720 O.3    13  THR13      -0.2208
     44  CG2       16.9720   44.7420   46.5760 C.3    13  THR13       0.0378
     45  N         22.3770   46.1760   33.6780 N.3    24  THR24      -0.1218
     46  CA        23.1030   46.3410   34.9370 C.3    24  THR24       0.1862
     47  C         24.6150   46.1980   34.6660 C.2    24  THR24       0.2287
     48  O         25.0520   45.5520   33.6920 O.2    24  THR24      -0.2866
     49  CB        22.6990   45.2640   36.0380 C.3    24  THR24       0.1770
     50  OG1       23.3440   43.9980   35.7930 O.3    24  THR24      -0.2211
     51  CG2       21.1810   45.0350   36.1300 C.3    24  THR24       0.0375
     52  N         30.3340   42.4450   43.1750 N.3    41  ASP41      -0.1239
     53  CA        28.9630   42.0520   42.8700 C.3    41  ASP41       0.1674
     54  C         28.9020   41.6250   41.3920 C.2    41  ASP41       0.2266
     55  O         29.0530   42.4450   40.4810 O.2    41  ASP41      -0.2867
     56  CB        28.0630   43.2320   43.2270 C.3    41  ASP41       0.1410
     57  CG        26.6030   43.0580   42.8290 C.2    41  ASP41       0.3668
     58  OD1       26.1050   41.9230   42.5990 O.co2  41  ASP41      -0.2456
     59  OD2       25.9170   44.1100   42.7900 O.co2  41  ASP41      -0.2456
     60  N         27.0430   40.2330   38.0540 N.3    43  ALA43      -0.1245
     61  CA        25.6980   40.2110   37.5110 C.3    43  ALA43       0.1562
     62  C         25.2670   38.7480   37.2840 C.2    43  ALA43       0.2260
     63  O         24.1050   38.3850   37.5550 O.2    43  ALA43      -0.2867
     64  CB        25.6070   41.0240   36.2160 C.3    43  ALA43       0.0290
@<TRIPOS>BOND
     1    45    46    1
     2    48    47    2
     3    47    46    1
     4    46    49    1
     5     6     5    1
     6     7     5    1
     7     5     2    1
     8    50    49    1
     9    49    51    1
    10    64    61    1
    11     2     1    1
    12     2     3    1
    13     4     3    2
    14    62    61    1
    15    62    63    2
    16     3     8   am
    17    61    60    1
    18     8     9    1
    19     9    10    1
    20    10    11    2
    21    10    12   am
    22    30    29    1
    23    55    54    2
    24    12    13    1
    25    29    28    1
    26    54    53    1
    27    36    35    1
    28    13    16    1
    29    13    14    1
    30    17    16    1
    31    28    27    1
    32    35    37    1
    33    35    32    1
    34    58    57   ar
    35    59    57   ar
    36    57    56    1
    37    53    52    1
    38    53    56    1
    39    18    14   am
    40    18    19    1
    41    14    15    2
    42    27    26    1
    43    26    23    1
    44    31    32    1
    45    31    24   am
    46    22    23    1
    47    22    20   am
    48    32    33    1
    49    19    20    1
    50    43    42    1
    51    23    24    1
    52    20    21    2
    53    24    25    2
    54    38    33   am
    55    38    39    1
    56    33    34    2
    57    42    39    1
    58    42    44    1
    59    39    40    1
    60    40    41    2
