@<TRIPOS>MOLECULE
tmp/2zetA00.pdb
 180 176 0 0 0
SMALL
GASTEIGER

@<TRIPOS>ATOM
      1  N         20.7690  109.8110  127.6850 N.3    14  SER14      -0.1202
      2  CA        21.9270  110.6880  127.6810 C.3    14  SER14       0.2020
      3  C         21.4890  112.0320  128.2310 C.2    14  SER14       0.2619
      4  O         20.3980  112.5100  127.9330 O.2    14  SER14      -0.2717
      5  CB        22.4820  110.8580  126.2660 C.3    14  SER14       0.2103
      6  OG        23.7080  111.5710  126.2830 O.3    14  SER14      -0.2182
      7  N         22.3360  112.6280  129.0560 N.am   15  GLY15      -0.1942
      8  CA        22.0130  113.9180  129.6180 C.3    15  GLY15       0.2014
      9  C         21.0660  113.9500  130.7990 C.2    15  GLY15       0.2639
     10  O         20.7860  115.0370  131.2960 O.2    15  GLY15      -0.2714
     11  N         20.5570  112.8140  131.2660 N.am   16  VAL16      -0.1963
     12  CA        19.6640  112.8980  132.4230 C.3    16  VAL16       0.1727
     13  C         20.4510  113.2250  133.6820 C.2    16  VAL16       0.2617
     14  O         19.8660  113.4510  134.7340 O.2    16  VAL16      -0.2715
     15  CB        18.8610  111.6120  132.6860 C.3    16  VAL16       0.0290
     16  CG1       17.8830  111.3830  131.5590 C.3    16  VAL16       0.0023
     17  CG2       19.7980  110.4320  132.8570 C.3    16  VAL16       0.0023
     18  N         21.7770  113.2390  133.5650 N.am   17  GLY17      -0.1940
     19  CA        22.6350  113.5840  134.6890 C.3    17  GLY17       0.2014
     20  C         23.1860  112.4730  135.5600 C.2    17  GLY17       0.2639
     21  O         23.0710  112.5450  136.7810 O.2    17  GLY17      -0.2714
     22  N         23.7970  111.4570  134.9600 N.am   18  LYS18      -0.1963
     23  CA        24.3420  110.3550  135.7450 C.3    18  LYS18       0.1728
     24  C         25.7510  110.6350  136.2390 C.2    18  LYS18       0.2617
     25  O         26.0550  110.3940  137.4000 O.2    18  LYS18      -0.2715
     26  CB        24.3150  109.0560  134.9350 C.3    18  LYS18       0.0311
     27  CG        22.9050  108.5850  134.5540 C.3    18  LYS18       0.0038
     28  CD        22.9290  107.2600  133.7780 C.3    18  LYS18       0.0206
     29  CE        23.7900  107.3440  132.5180 C.3    18  LYS18       0.1093
     30  NZ        23.1620  108.1780  131.4730 N.3    18  LYS18      -0.1314
     31  N         26.6070  111.1410  135.3560 N.am   19  THR19      -0.1937
     32  CA        27.9920  111.4670  135.7010 C.3    19  THR19       0.2028
     33  C         28.0280  112.5500  136.7720 C.2    19  THR19       0.2642
     34  O         28.8500  112.5250  137.6910 O.2    19  THR19      -0.2714
     35  CB        28.7560  111.9810  134.4690 C.3    19  THR19       0.1808
     36  OG1       29.0030  110.8930  133.5730 O.3    19  THR19      -0.2208
     37  CG2       30.0680  112.6170  134.8740 C.3    19  THR19       0.0379
     38  N         27.1190  113.5040  136.6240 N.am   20  THR20      -0.1950
     39  CA        26.9790  114.6260  137.5300 C.3    20  THR20       0.1897
     40  C         26.4080  114.1600  138.8660 C.2    20  THR20       0.2313
     41  O         26.8090  114.6350  139.9190 O.2    20  THR20      -0.2863
     42  CB        26.0220  115.6720  136.9290 C.3    20  THR20       0.1794
     43  OG1       26.4510  116.0190  135.6050 O.3    20  THR20      -0.2208
     44  CG2       25.9660  116.9130  137.8030 C.3    20  THR20       0.0378
     45  N         29.5400  120.0900  142.4540 N.3    30  PHE30      -0.1227
     46  CA        28.6320  120.1210  141.3210 C.3    30  PHE30       0.1736
     47  C         29.2210  120.7450  140.0630 C.2    30  PHE30       0.2595
     48  O         29.2930  121.9620  139.9520 O.2    30  PHE30      -0.2718
     49  CB        27.3820  120.8930  141.7110 C.3    30  PHE30       0.0547
     50  CG        26.4350  121.1160  140.5770 C.ar   30  PHE30      -0.0202
     51  CD1       25.5820  120.1020  140.1560 C.ar   30  PHE30      -0.0042
     52  CD2       26.3990  122.3390  139.9190 C.ar   30  PHE30      -0.0042
     53  CE1       24.7020  120.3070  139.0910 C.ar   30  PHE30      -0.0003
     54  CE2       25.5290  122.5570  138.8570 C.ar   30  PHE30      -0.0003
     55  CZ        24.6780  121.5420  138.4400 C.ar   30  PHE30      -0.0000
     56  N         29.6160  119.9110  139.1050 N.am   31  ASN31      -0.1961
     57  CA        30.1850  120.4000  137.8460 C.3    31  ASN31       0.1804
     58  C         29.0900  120.5170  136.7800 C.2    31  ASN31       0.2463
     59  O         28.4540  119.5250  136.4290 O.2    31  ASN31      -0.2730
     60  CB        31.2780  119.4530  137.3510 C.3    31  ASN31       0.1195
     61  CG        32.2230  120.1240  136.3820 C.2    31  ASN31       0.2630
     62  OD1       31.7970  120.8430  135.4730 O.2    31  ASN31      -0.2716
     63  ND2       33.5170  119.8920  136.5650 N.am   31  ASN31      -0.0877
     64  N         28.8660  121.7360  136.2500 N.am   32  PRO32      -0.2716
     65  CA        27.8440  122.0070  135.2240 C.3    32  PRO32       0.1536
     66  C         28.1300  121.5940  133.7750 C.2    32  PRO32       0.2598
     67  O         27.2280  121.6130  132.9420 O.2    32  PRO32      -0.2715
     68  CB        27.6350  123.5200  135.3350 C.3    32  PRO32       0.0310
     69  CG        28.1280  123.8620  136.7280 C.3    32  PRO32       0.0237
     70  CD        29.3470  122.9960  136.8400 C.3    32  PRO32       0.0939
     71  N         29.3670  121.2180  133.4720 N.am   33  LYS33      -0.1964
     72  CA        29.7430  120.8370  132.1050 C.3    33  LYS33       0.1728
     73  C         29.1630  119.5130  131.6060 C.2    33  LYS33       0.2616
     74  O         29.2030  118.5010  132.3040 O.2    33  LYS33      -0.2715
     75  CB        31.2660  120.7720  131.9870 C.3    33  LYS33       0.0311
     76  CG        31.9820  121.9740  132.5680 C.3    33  LYS33       0.0038
     77  CD        33.4720  121.7280  132.6190 C.3    33  LYS33       0.0206
     78  CE        34.1740  122.7770  133.4580 C.3    33  LYS33       0.1093
     79  NZ        35.6220  122.4500  133.6080 N.3    33  LYS33      -0.1314
     80  N         28.6250  119.5260  130.3900 N.am   34  PHE34      -0.1960
     81  CA        28.0680  118.3170  129.7890 C.3    34  PHE34       0.1771
     82  C         29.0850  117.7300  128.8090 C.2    34  PHE34       0.2619
     83  O         29.3570  118.2920  127.7460 O.2    34  PHE34      -0.2715
     84  CB        26.7490  118.6160  129.0490 C.3    34  PHE34       0.0574
     85  CG        26.1580  117.4130  128.3280 C.ar   34  PHE34      -0.0200
     86  CD1       25.7980  116.2650  129.0300 C.ar   34  PHE34      -0.0042
     87  CD2       25.9840  117.4230  126.9430 C.ar   34  PHE34      -0.0042
     88  CE1       25.2720  115.1380  128.3670 C.ar   34  PHE34      -0.0003
     89  CE2       25.4610  116.3040  126.2660 C.ar   34  PHE34      -0.0003
     90  CZ        25.1050  115.1580  126.9830 C.ar   34  PHE34      -0.0000
     91  N         29.6660  116.6040  129.1880 N.am   35  ILE35      -0.1963
     92  CA        30.6310  115.9290  128.3430 C.3    35  ILE35       0.1727
     93  C         30.1600  114.4840  128.2970 C.2    35  ILE35       0.2617
     94  O         30.6020  113.6430  129.0780 O.2    35  ILE35      -0.2715
     95  CB        32.0380  116.0060  128.9450 C.3    35  ILE35       0.0290
     96  CG1       32.2370  117.3670  129.6170 C.3    35  ILE35       0.0022
     97  CG2       33.0740  115.8180  127.8460 C.3    35  ILE35       0.0023
     98  CD1       33.5060  117.4700  130.4150 C.3    35  ILE35       0.0001
     99  N         29.2270  114.2220  127.3890 N.am   36  THR36      -0.1937
    100  CA        28.6470  112.8990  127.2110 C.3    36  THR36       0.2028
    101  C         29.6860  111.8000  127.4650 C.2    36  THR36       0.2642
    102  O         30.7600  111.7840  126.8520 O.2    36  THR36      -0.2714
    103  CB        28.0450  112.7780  125.7870 C.3    36  THR36       0.1808
    104  OG1       27.1870  111.6350  125.7210 O.3    36  THR36      -0.2208
    105  CG2       29.1480  112.6670  124.7410 C.3    36  THR36       0.0379
    106  N         29.3600  110.8930  128.3850 N.am   37  THR37      -0.1950
    107  CA        30.2530  109.7950  128.7600 C.3    37  THR37       0.1897
    108  C         30.5410  108.8040  127.6270 C.2    37  THR37       0.2313
    109  O         29.6240  108.2060  127.0620 O.2    37  THR37      -0.2863
    110  CB        29.6820  109.0140  129.9660 C.3    37  THR37       0.1794
    111  OG1       29.3050  109.9300  131.0030 O.3    37  THR37      -0.2208
    112  CG2       30.7240  108.0650  130.5180 C.3    37  THR37       0.0378
    113  N         29.2730  104.1090  135.7550 N.3    67  ASP67      -0.1225
    114  CA        28.5490  105.1310  135.0180 C.3    67  ASP67       0.1805
    115  C         28.5140  104.7940  133.5320 C.2    67  ASP67       0.2598
    116  O         29.5150  104.9330  132.8210 O.2    67  ASP67      -0.2718
    117  CB        29.2160  106.4850  135.2300 C.3    67  ASP67       0.1424
    118  CG        28.4490  107.6030  134.5890 C.2    67  ASP67       0.3668
    119  OD1       27.2020  107.6000  134.7230 O.co2  67  ASP67      -0.2456
    120  OD2       29.0870  108.4780  133.9630 O.co2  67  ASP67      -0.2456
    121  N         27.3500  104.3570  133.0660 N.am   68  THR68      -0.1953
    122  CA        27.1770  103.9670  131.6730 C.3    68  THR68       0.1897
    123  C         26.8350  105.1250  130.7600 C.2    68  THR68       0.2313
    124  O         26.3450  106.1570  131.2080 O.2    68  THR68      -0.2863
    125  CB        26.0710  102.9360  131.5510 C.3    68  THR68       0.1794
    126  OG1       24.8900  103.4410  132.1830 O.3    68  THR68      -0.2208
    127  CG2       26.4750  101.6490  132.2330 C.3    68  THR68       0.0378
    128  N         24.7520  107.0790  127.8300 N.3    70  GLY70      -0.1225
    129  CA        23.3400  107.1320  127.5200 C.3    70  GLY70       0.1811
    130  C         23.0720  106.9220  126.0500 C.2    70  GLY70       0.2280
    131  O         22.1070  106.2540  125.6890 O.2    70  GLY70      -0.2866
    132  N         15.8700  112.9310  138.4270 N.3   123  ASN123     -0.1225
    133  CA        16.8800  113.9500  138.6350 C.3   123  ASN123      0.1785
    134  C         16.4990  115.3300  138.1250 C.2   123  ASN123      0.2597
    135  O         15.6250  115.4740  137.2680 O.2   123  ASN123     -0.2718
    136  CB        18.1900  113.5010  137.9780 C.3   123  ASN123      0.1169
    137  CG        19.4020  114.3100  138.4360 C.2   123  ASN123      0.2627
    138  OD1       19.8200  114.2330  139.5990 O.2   123  ASN123     -0.2716
    139  ND2       19.9770  115.0810  137.5150 N.am  123  ASN123     -0.0877
    140  N         17.1850  116.3310  138.6780 N.am  124  LYS124     -0.1980
    141  CA        17.0130  117.7440  138.3500 C.3   124  LYS124      0.1596
    142  C         15.7480  118.3580  138.9510 C.2   124  LYS124      0.2287
    143  O         14.9660  119.0170  138.2620 O.2   124  LYS124     -0.2864
    144  CB        17.0470  117.9290  136.8330 C.3   124  LYS124      0.0298
    145  CG        18.3480  117.4590  136.2140 C.3   124  LYS124      0.0038
    146  CD        18.3160  117.6050  134.7200 C.3   124  LYS124      0.0206
    147  CE        19.6250  117.2000  134.0870 C.3   124  LYS124      0.1093
    148  NZ        19.4670  117.0330  132.6180 N.3   124  LYS124     -0.1314
    149  N         15.7970  120.6470  141.1960 N.3   126  ASP126     -0.1225
    150  CA        16.0950  122.0640  141.3870 C.3   126  ASP126      0.1805
    151  C         15.4700  122.9960  140.3410 C.2   126  ASP126      0.2597
    152  O         15.4780  124.2160  140.5210 O.2   126  ASP126     -0.2718
    153  CB        17.6060  122.2640  141.3760 C.3   126  ASP126      0.1424
    154  CG        18.2180  121.9610  140.0150 C.2   126  ASP126      0.3668
    155  OD1       17.9850  120.8440  139.4960 O.co2 126  ASP126     -0.2456
    156  OD2       18.9280  122.8370  139.4670 O.co2 126  ASP126     -0.2456
    157  N         14.9400  122.4390  139.2510 N.am  127  LEU127     -0.1979
    158  CA        14.3260  123.2540  138.2020 C.3   127  LEU127      0.1596
    159  C         12.8540  122.9100  138.0240 C.2   127  LEU127      0.2287
    160  O         12.4580  122.4310  136.9690 O.2   127  LEU127     -0.2864
    161  CB        15.0570  123.0380  136.8770 C.3   127  LEU127      0.0297
    162  CG        16.5830  123.0440  136.9600 C.3   127  LEU127      0.0022
    163  CD1       17.1750  122.8990  135.5820 C.3   127  LEU127      0.0001
    164  CD2       17.0550  124.3340  137.5900 C.3   127  LEU127      0.0001
    165  N         18.5240  115.9250  142.9590 N.3   153  SER153     -0.1202
    166  CA        19.2020  117.0470  142.3120 C.3   153  SER153      0.2020
    167  C         20.7100  117.0290  142.5250 C.2   153  SER153      0.2619
    168  O         21.1890  117.2470  143.6290 O.2   153  SER153     -0.2717
    169  CB        18.6640  118.3820  142.8180 C.3   153  SER153      0.2103
    170  OG        19.3180  119.4510  142.1510 O.3   153  SER153     -0.2182
    171  N         21.4540  116.7610  141.4620 N.am  154  ALA154     -0.1965
    172  CA        22.9010  116.7460  141.5430 C.3   154  ALA154      0.1728
    173  C         23.3520  118.1420  141.9610 C.2   154  ALA154      0.2616
    174  O         24.4000  118.3140  142.5680 O.2   154  ALA154     -0.2715
    175  CB        23.4850  116.3950  140.1890 C.3   154  ALA154      0.0334
    176  N         22.5380  119.1370  141.6210 N.am  155  ALA155     -0.1977
    177  CA        22.8220  120.5360  141.9340 C.3   155  ALA155      0.1597
    178  C         22.6960  120.8170  143.4290 C.2   155  ALA155      0.2287
    179  O         23.6870  121.0720  144.1010 O.2   155  ALA155     -0.2864
    180  CB        21.8790  121.4350  141.1470 C.3   155  ALA155      0.0319
@<TRIPOS>BOND
     1   105   103    1
     2   131   130    2
     3   104   103    1
     4   103   100    1
     5   130   129    1
     6    89    87   ar
     7    89    90   ar
     8     5     6    1
     9     5     2    1
    10   102   101    2
    11    87    85   ar
    12    90    88   ar
    13   109   108    2
    14   100    99    1
    15   100   101    1
    16    99    93   am
    17   101   106   am
    18   129   128    1
    19   108   107    1
    20     2     1    1
    21     2     3    1
    22    83    82    2
    23    97    95    1
    24     4     3    2
    25     3     7   am
    26    93    92    1
    27    93    94    2
    28    85    86   ar
    29    85    84    1
    30    92    95    1
    31    92    91    1
    32    88    86   ar
    33   106   107    1
    34   107   110    1
    35    82    91   am
    36    82    81    1
    37    95    96    1
    38    84    81    1
    39     7     8    1
    40    96    98    1
    41     8     9    1
    42    81    80    1
    43   110   112    1
    44   110   111    1
    45    80    73   am
    46   123   124    2
    47   123   122    1
    48     9    11   am
    49     9    10    2
    50    11    12    1
    51    30    29    1
    52   125   122    1
    53   125   126    1
    54   125   127    1
    55    16    15    1
    56    73    72    1
    57    73    74    2
    58   122   121    1
    59    75    72    1
    60    75    76    1
    61    72    71    1
    62    12    15    1
    63    12    13    1
    64    29    28    1
    65    76    77    1
    66   148   147    1
    67    77    78    1
    68    15    17    1
    69   116   115    2
    70    67    66    2
    71   121   115   am
    72    78    79    1
    73    71    66   am
    74   115   114    1
    75    18    13   am
    76    18    19    1
    77    36    35    1
    78    13    14    2
    79    66    65    1
    80    28    27    1
    81   120   118   ar
    82   147   146    1
    83    35    37    1
    84    35    32    1
    85    27    26    1
    86   118   119   ar
    87   118   117    1
    88    19    20    1
    89   146   145    1
    90    26    23    1
    91    22    20   am
    92    22    23    1
    93   114   117    1
    94   114   113    1
    95    65    68    1
    96    65    64    1
    97    68    69    1
    98    31    32    1
    99    31    24   am
   100    62    61    2
   101    20    21    2
   102   163   162    1
   103    43    42    1
   104    32    33    1
   105    23    24    1
   106   145   144    1
   107    24    25    2
   108    64    58   am
   109    64    70    1
   110    61    63   am
   111    61    60    1
   112    59    58    2
   113    38    33   am
   114    38    39    1
   115    69    70    1
   116    33    34    2
   117    58    57    1
   118   144   141    1
   119   161   162    1
   120   161   158    1
   121    42    39    1
   122    42    44    1
   123   162   164    1
   124   160   159    2
   125   135   134    2
   126    60    57    1
   127   139   137   am
   128    39    40    1
   129    57    56    1
   130   136   137    1
   131   136   133    1
   132   159   158    1
   133   134   133    1
   134   134   140   am
   135   158   157    1
   136   143   142    2
   137   141   140    1
   138   141   142    1
   139   132   133    1
   140   137   138    2
   141    55    54   ar
   142    55    53   ar
   143    54    52   ar
   144    40    41    2
   145    53    51   ar
   146    56    47   am
   147   157   151   am
   148   156   154   ar
   149   155   154   ar
   150    52    50   ar
   151    48    47    2
   152   154   153    1
   153    47    46    1
   154    51    50   ar
   155   175   172    1
   156   151   152    2
   157   151   150    1
   158    50    49    1
   159   180   177    1
   160   149   150    1
   161    46    49    1
   162    46    45    1
   163   153   150    1
   164   171   172    1
   165   171   167   am
   166   172   173    1
   167   176   177    1
   168   176   173   am
   169   177   178    1
   170   173   174    2
   171   170   169    1
   172   166   167    1
   173   166   169    1
   174   166   165    1
   175   167   168    2
   176   178   179    2
