@<TRIPOS>MOLECULE
tmp/2zeuA00.pdb
 238 220 0 0 0
SMALL
GASTEIGER

@<TRIPOS>ATOM
      1  N         42.2700   52.3940    7.8550 N.3    38  ARG38      -0.1245
      2  CA        41.5960   52.8580    9.0560 C.3    38  ARG38       0.1563
      3  C         42.6670   53.5950    9.8550 C.2    38  ARG38       0.2260
      4  O         42.4020   54.6070   10.4900 O.2    38  ARG38      -0.2867
      5  CB        41.0360   51.6730    9.8760 C.3    38  ARG38       0.0307
      6  CG        39.8140   51.0250    9.2360 C.3    38  ARG38       0.0489
      7  CD        39.1980   49.9230   10.1050 C.3    38  ARG38       0.2205
      8  NE        40.0450   48.7340   10.1950 N.pl3  38  ARG38      -0.0865
      9  CZ        40.1600   47.7950    9.2540 C.cat  38  ARG38       0.5346
     10  NH1       39.4790   47.8700    8.1090 N.pl3  38  ARG38       0.1354
     11  NH2       40.9610   46.7570    9.4700 N.pl3  38  ARG38       0.1354
     12  N         43.0080   57.1600    8.5150 N.3    41  LEU41      -0.1231
     13  CA        41.9460   58.0800    8.9280 C.3    41  LEU41       0.1693
     14  C         42.1720   58.5530   10.3910 C.2    41  LEU41       0.2591
     15  O         42.0150   59.7230   10.7090 O.2    41  LEU41      -0.2718
     16  CB        40.5620   57.4040    8.7580 C.3    41  LEU41       0.0284
     17  CG        39.3530   58.1950    9.2790 C.3    41  LEU41       0.0019
     18  CD1       39.3320   59.5950    8.6910 C.3    41  LEU41       0.0001
     19  CD2       38.0650   57.4450    8.9370 C.3    41  LEU41       0.0001
     20  N         42.5610   57.6390   11.2750 N.am   42  ILE42      -0.1980
     21  CA        42.8290   58.0020   12.6490 C.3    42  ILE42       0.1595
     22  C         44.0120   59.0080   12.7070 C.2    42  ILE42       0.2287
     23  O         43.9540   60.0350   13.4020 O.2    42  ILE42      -0.2864
     24  CB        43.1740   56.7480   13.4600 C.3    42  ILE42       0.0276
     25  CG1       41.9680   55.7960   13.4500 C.3    42  ILE42       0.0022
     26  CG2       43.5540   57.1360   14.8670 C.3    42  ILE42       0.0022
     27  CD1       42.1690   54.5550   14.2570 C.3    42  ILE42       0.0001
     28  N         42.9030   62.5270   11.5550 N.3    45  ILE45      -0.1245
     29  CA        42.0980   63.1280   12.6020 C.3    45  ILE45       0.1561
     30  C         43.0280   63.5280   13.7530 C.2    45  ILE45       0.2260
     31  O         42.8180   64.5410   14.4170 O.2    45  ILE45      -0.2867
     32  CB        41.0320   62.1150   13.1460 C.3    45  ILE45       0.0252
     33  CG1       40.0640   61.7260   12.0150 C.3    45  ILE45       0.0019
     34  CG2       40.3220   62.6910   14.3720 C.3    45  ILE45       0.0019
     35  CD1       39.4260   62.9290   11.2840 C.3    45  ILE45       0.0001
     36  N         39.8780   50.0600   18.0840 N.3    63  VAL63      -0.1245
     37  CA        39.1270   50.0920   16.8570 C.3    63  VAL63       0.1561
     38  C         39.2780   48.7960   16.0470 C.2    63  VAL63       0.2260
     39  O         38.2740   48.2530   15.5120 O.2    63  VAL63      -0.2867
     40  CB        39.5580   51.2530   15.9590 C.3    63  VAL63       0.0252
     41  CG1       38.8850   51.1290   14.6090 C.3    63  VAL63       0.0019
     42  CG2       39.1730   52.5900   16.5860 C.3    63  VAL63       0.0019
     43  N         36.1810   46.5030   15.0830 N.3    67  HIS67      -0.1241
     44  CA        35.8680   46.4140   13.6910 C.3    67  HIS67       0.1621
     45  C         35.9260   44.9570   13.2290 C.2    67  HIS67       0.2264
     46  O         34.9940   44.4660   12.5790 O.2    67  HIS67      -0.2867
     47  CB        36.8360   47.2340   12.8370 C.3    67  HIS67       0.0745
     48  CG        36.5300   47.1940   11.3700 C.ar   67  HIS67       0.0817
     49  ND1       35.3260   47.6310   10.8470 N.ar   67  HIS67      -0.2268
     50  CD2       37.2660   46.7810   10.3130 C.ar   67  HIS67       0.1154
     51  CE1       35.3400   47.4970    9.5340 C.ar   67  HIS67       0.1986
     52  NE2       36.5070   46.9850    9.1820 N.ar   67  HIS67      -0.2212
     53  N         33.0710   42.8640   14.7020 N.3    70  SER70      -0.1202
     54  CA        31.7900   43.2320   14.0800 C.3    70  SER70       0.2020
     55  C         31.6700   42.5400   12.7570 C.2    70  SER70       0.2618
     56  O         30.5620   42.1310   12.3970 O.2    70  SER70      -0.2717
     57  CB        31.6700   44.7350   13.7920 C.3    70  SER70       0.2103
     58  OG        31.5640   45.3960   15.0220 O.3    70  SER70      -0.2182
     59  N         32.7890   42.4350   12.0230 N.am   71  LEU71      -0.1979
     60  CA        32.7820   41.7860   10.7270 C.3    71  LEU71       0.1596
     61  C         32.5250   40.2820   10.8530 C.2    71  LEU71       0.2287
     62  O         31.7210   39.7050   10.0780 O.2    71  LEU71      -0.2864
     63  CB        34.1030   42.0580    9.9770 C.3    71  LEU71       0.0297
     64  CG        34.3580   43.5230    9.5510 C.3    71  LEU71       0.0022
     65  CD1       35.5800   43.6050    8.5520 C.3    71  LEU71       0.0001
     66  CD2       33.0840   44.0920    8.8650 C.3    71  LEU71       0.0001
     67  N         28.8230   39.9640   11.7040 N.3    74  ASP74      -0.1225
     68  CA        28.1090   40.4100   10.5330 C.3    74  ASP74       0.1805
     69  C         28.0070   39.3540    9.4450 C.2    74  ASP74       0.2597
     70  O         26.9480   39.1510    8.8400 O.2    74  ASP74      -0.2718
     71  CB        28.8160   41.5900    9.8980 C.3    74  ASP74       0.1424
     72  CG        28.0110   42.1570    8.7890 C.2    74  ASP74       0.3668
     73  OD1       26.9610   42.7800    9.1050 O.co2  74  ASP74      -0.2456
     74  OD2       28.3790   41.9520    7.6030 O.co2  74  ASP74      -0.2456
     75  N         29.1430   38.6910    9.1610 N.am   75  ASP75      -0.1974
     76  CA        29.1160   37.6610    8.1230 C.3    75  ASP75       0.1709
     77  C         28.2620   36.4490    8.5460 C.2    75  ASP75       0.2293
     78  O         27.7380   35.7450    7.7020 O.2    75  ASP75      -0.2864
     79  CB        30.5410   37.2160    7.7440 C.3    75  ASP75       0.1436
     80  CG        31.3120   38.3500    6.9870 C.2    75  ASP75       0.3671
     81  OD1       30.6640   39.1470    6.2410 O.co2  75  ASP75      -0.2456
     82  OD2       32.5530   38.4290    7.1290 O.co2  75  ASP75      -0.2456
     83  N         24.5950   37.6400    8.0950 N.3    78  ASP78      -0.1239
     84  CA        24.2860   37.7840    6.6610 C.3    78  ASP78       0.1674
     85  C         24.4790   36.4950    5.8410 C.2    78  ASP78       0.2266
     86  O         24.2690   36.5100    4.6310 O.2    78  ASP78      -0.2867
     87  CB        25.1870   38.8860    6.0350 C.3    78  ASP78       0.1410
     88  CG        24.9910   40.2660    6.6980 C.2    78  ASP78       0.3668
     89  OD1       24.0920   40.4410    7.5730 O.co2  78  ASP78      -0.2456
     90  OD2       25.7590   41.1780    6.3510 O.co2  78  ASP78      -0.2456
     91  N         34.7060   37.1840    2.3690 N.3    83  ARG83      -0.1245
     92  CA        35.0250   38.4740    2.9760 C.3    83  ARG83       0.1563
     93  C         36.4160   38.7970    2.3650 C.2    83  ARG83       0.2260
     94  O         37.3550   37.9890    2.4830 O.2    83  ARG83      -0.2867
     95  CB        35.0670   38.3030    4.5150 C.3    83  ARG83       0.0307
     96  CG        35.7020   39.4030    5.4050 C.3    83  ARG83       0.0489
     97  CD        35.0530   40.7880    5.4160 C.3    83  ARG83       0.2205
     98  NE        33.6600   40.7950    5.9070 N.pl3  83  ARG83      -0.0865
     99  CZ        32.8870   41.8750    5.8710 C.cat  83  ARG83       0.5346
    100  NH1       33.3810   43.0180    5.4000 N.pl3  83  ARG83       0.1354
    101  NH2       31.6170   41.8100    6.2270 N.pl3  83  ARG83       0.1354
    102  N         25.5680   50.7220   17.8720 N.3   137  LEU137     -0.1245
    103  CA        25.8420   49.7700   16.7950 C.3   137  LEU137      0.1561
    104  C         24.8350   48.6040   16.7980 C.2   137  LEU137      0.2260
    105  O         24.3690   48.2160   15.7420 O.2   137  LEU137     -0.2867
    106  CB        27.2410   49.1460   16.9560 C.3   137  LEU137      0.0270
    107  CG        27.5040   47.8490   16.1420 C.3   137  LEU137      0.0019
    108  CD1       27.3080   48.0840   14.5860 C.3   137  LEU137      0.0001
    109  CD2       28.9710   47.3510   16.4270 C.3   137  LEU137      0.0001
    110  N         22.2440   47.7010   13.8200 N.3   141  GLN141     -0.1245
    111  CA        22.3750   46.3630   13.2140 C.3   141  GLN141      0.1566
    112  C         21.0700   45.5640   13.4770 C.2   141  GLN141      0.2260
    113  O         20.5850   44.8720   12.6030 O.2   141  GLN141     -0.2867
    114  CB        23.6060   45.6220   13.7790 C.3   141  GLN141      0.0367
    115  CG        23.7310   44.2120   13.3070 C.3   141  GLN141      0.0905
    116  CD        24.2880   44.1250   11.8630 C.2   141  GLN141      0.2608
    117  OE1       24.3110   45.1260   11.1350 O.2   141  GLN141     -0.2717
    118  NE2       24.7090   42.9220   11.4490 N.am  141  GLN141     -0.0878
    119  N         18.4280   46.7570   10.9010 N.3   144  ASP144     -0.1239
    120  CA        18.7800   46.3240    9.5530 C.3   144  ASP144      0.1674
    121  C         18.4320   44.8340    9.3750 C.2   144  ASP144      0.2266
    122  O         17.8730   44.4150    8.3720 O.2   144  ASP144     -0.2867
    123  CB        20.2680   46.5400    9.3360 C.3   144  ASP144      0.1410
    124  CG        20.6420   46.8010    7.8790 C.2   144  ASP144      0.3668
    125  OD1       19.7730   47.2010    7.0560 O.co2 144  ASP144     -0.2456
    126  OD2       21.8610   46.6400    7.5850 O.co2 144  ASP144     -0.2456
    127  N         23.9210   52.2250   13.2260 N.3   168  LYS168     -0.1231
    128  CA        24.7350   51.1170   12.7360 C.3   168  LYS168      0.1693
    129  C         26.1600   51.4380   12.2590 C.2   168  LYS168      0.2592
    130  O         27.1300   50.8790   12.7500 O.2   168  LYS168     -0.2718
    131  CB        24.0100   50.3810   11.5820 C.3   168  LYS168      0.0285
    132  CG        24.7700   49.0820   11.1240 C.3   168  LYS168      0.0035
    133  CD        24.1220   48.3640    9.9320 C.3   168  LYS168      0.0206
    134  CE        24.1530   49.2560    8.6550 C.3   168  LYS168      0.1093
    135  NZ        23.9440   48.4450    7.3770 N.3   168  LYS168     -0.1314
    136  N         26.2720   52.2850   11.2560 N.am  169  THR169     -0.1953
    137  CA        27.5870   52.6180   10.7000 C.3   169  THR169      0.1897
    138  C         28.2380   53.7400   11.4930 C.2   169  THR169      0.2313
    139  O         29.4360   53.6840   11.7830 O.2   169  THR169     -0.2863
    140  CB        27.4260   53.0380    9.2520 C.3   169  THR169      0.1794
    141  OG1       26.5510   52.0990    8.6080 O.3   169  THR169     -0.2208
    142  CG2       28.7700   53.0580    8.5620 C.3   169  THR169      0.0378
    143  N         30.7720   53.0280   15.0810 N.3   172  LEU172     -0.1231
    144  CA        32.2240   52.8990   15.2010 C.3   172  LEU172      0.1693
    145  C         33.0060   54.1630   14.8400 C.2   172  LEU172      0.2592
    146  O         34.1030   54.3740   15.3690 O.2   172  LEU172     -0.2718
    147  CB        32.7350   51.7780   14.3240 C.3   172  LEU172      0.0284
    148  CG        33.4580   50.5900   14.9300 C.3   172  LEU172      0.0019
    149  CD1       32.5010   49.3820   14.8770 C.3   172  LEU172      0.0001
    150  CD2       34.7180   50.3000   14.1310 C.3   172  LEU172      0.0001
    151  N         32.4800   54.9520   13.8980 N.am  173  PHE173     -0.1976
    152  CA        33.1050   56.2100   13.4920 C.3   173  PHE173      0.1639
    153  C         33.0540   57.1630   14.6930 C.2   173  PHE173      0.2290
    154  O         34.0920   57.7870   15.0920 O.2   173  PHE173     -0.2864
    155  CB        32.3520   56.8370   12.3060 C.3   173  PHE173      0.0560
    156  CG        32.6630   56.2190   10.9720 C.ar  173  PHE173     -0.0200
    157  CD1       33.7480   56.6840   10.1980 C.ar  173  PHE173     -0.0042
    158  CD2       31.8680   55.1810   10.4630 C.ar  173  PHE173     -0.0042
    159  CE1       34.0230   56.1060    8.9220 C.ar  173  PHE173     -0.0003
    160  CE2       32.1110   54.5890    9.2030 C.ar  173  PHE173     -0.0003
    161  CZ        33.1830   55.0350    8.4160 C.ar  173  PHE173     -0.0000
    162  N         35.3160   56.0320   17.7560 N.3   176  THR176     -0.1203
    163  CA        36.7240   56.3620   17.5760 C.3   176  THR176      0.1994
    164  C         36.9240   57.8510   17.7890 C.2   176  THR176      0.2617
    165  O         37.7930   58.2580   18.5880 O.2   176  THR176     -0.2717
    166  CB        37.1960   56.0310   16.1740 C.3   176  THR176      0.1784
    167  OG1       37.0330   54.6250   15.9380 O.3   176  THR176     -0.2211
    168  CG2       38.6730   56.3790   16.0160 C.3   176  THR176      0.0376
    169  N         36.1090   58.6600   17.1020 N.am  177  LEU177     -0.1979
    170  CA        36.2210   60.1120   17.2070 C.3   177  LEU177      0.1596
    171  C         35.9370   60.6210   18.6090 C.2   177  LEU177      0.2287
    172  O         36.6760   61.4630   19.1370 O.2   177  LEU177     -0.2864
    173  CB        35.3190   60.7950   16.1760 C.3   177  LEU177      0.0297
    174  CG        35.5050   62.3140   16.1480 C.3   177  LEU177      0.0022
    175  CD1       36.9490   62.7080   15.7120 C.3   177  LEU177      0.0001
    176  CD2       34.5240   62.8500   15.1890 C.3   177  LEU177      0.0001
    177  N         32.0570   63.2860   11.2290 N.3   194  ILE194     -0.1245
    178  CA        32.2920   61.8530   11.2070 C.3   194  ILE194      0.1561
    179  C         30.9690   61.1230   10.9730 C.2   194  ILE194      0.2260
    180  O         31.0020   60.0230   10.4800 O.2   194  ILE194     -0.2867
    181  CB        32.9490   61.3690   12.5040 C.3   194  ILE194      0.0252
    182  CG1       34.0640   60.3800   12.1650 C.3   194  ILE194      0.0019
    183  CG2       31.9190   60.7590   13.4560 C.3   194  ILE194      0.0019
    184  CD1       35.2790   61.0490   11.4520 C.3   194  ILE194      0.0001
    185  N         29.9520   56.6340    3.6180 N.3   201  TYR201     -0.1227
    186  CA        30.5460   55.3150    3.6210 C.3   201  TYR201      0.1736
    187  C         29.4750   54.1940    3.3750 C.2   201  TYR201      0.2595
    188  O         29.6260   53.3130    2.5070 O.2   201  TYR201     -0.2718
    189  CB        31.1870   55.0660    4.9640 C.3   201  TYR201      0.0548
    190  CG        31.6790   53.6730    5.0520 C.ar  201  TYR201     -0.0200
    191  CD1       32.9350   53.2970    4.5230 C.ar  201  TYR201     -0.0009
    192  CD2       30.8510   52.6820    5.5570 C.ar  201  TYR201     -0.0009
    193  CE1       33.3280   51.9390    4.4980 C.ar  201  TYR201      0.0417
    194  CE2       31.2120   51.3720    5.5260 C.ar  201  TYR201      0.0417
    195  CZ        32.4470   50.9920    4.9950 C.ar  201  TYR201      0.1957
    196  OH        32.7270   49.6530    4.9660 O.3   201  TYR201     -0.2866
    197  N         28.3910   54.2320    4.1330 N.am  202  GLN202     -0.1979
    198  CA        27.3970   53.1840    3.9460 C.3   202  GLN202      0.1601
    199  C         26.6350   53.2270    2.6380 C.2   202  GLN202      0.2287
    200  O         26.4050   52.2020    1.9930 O.2   202  GLN202     -0.2864
    201  CB        26.3830   53.1730    5.1080 C.3   202  GLN202      0.0394
    202  CG        25.4730   51.9060    5.0880 C.3   202  GLN202      0.0908
    203  CD        26.2810   50.6320    5.2270 C.2   202  GLN202      0.2608
    204  OE1       26.9480   50.4460    6.2220 O.2   202  GLN202     -0.2717
    205  NE2       26.2600   49.7800    4.2180 N.am  202  GLN202     -0.0878
    206  N         28.8800   52.1430   -0.1100 N.3   205  ASP205     -0.1239
    207  CA        29.0790   50.7140   -0.0370 C.3   205  ASP205      0.1674
    208  C         27.8410   50.0150   -0.7040 C.2   205  ASP205      0.2266
    209  O         27.9840   49.1570   -1.5740 O.2   205  ASP205     -0.2867
    210  CB        29.2490   50.3000    1.4460 C.3   205  ASP205      0.1410
    211  CG        29.3240   48.7880    1.6370 C.2   205  ASP205      0.3668
    212  OD1       30.1540   48.1530    0.9890 O.co2 205  ASP205     -0.2456
    213  OD2       28.5590   48.2110    2.4390 O.co2 205  ASP205     -0.2456
    214  N         24.6340   41.7910   -1.8150 N.3   220  ASP220     -0.1239
    215  CA        23.5850   42.4080   -0.9840 C.3   220  ASP220      0.1674
    216  C         22.1900   41.9100   -1.4330 C.2   220  ASP220      0.2266
    217  O         21.2730   41.8700   -0.6200 O.2   220  ASP220     -0.2867
    218  CB        23.6290   43.9650   -1.0670 C.3   220  ASP220      0.1410
    219  CG        24.8170   44.5670   -0.2150 C.2   220  ASP220      0.3668
    220  OD1       25.4880   43.7290    0.4170 O.co2 220  ASP220     -0.2456
    221  OD2       25.0600   45.8170   -0.1700 O.co2 220  ASP220     -0.2456
    222  N         19.1360   42.4160    1.6290 N.3   225  LYS225     -0.1245
    223  CA        19.3170   43.6880    2.3230 C.3   225  LYS225      0.1561
    224  C         18.4380   44.8800    1.8930 C.2   225  LYS225      0.2260
    225  O         18.1960   45.0980    0.7000 O.2   225  LYS225     -0.2867
    226  CB        20.8240   44.0540    2.1940 C.3   225  LYS225      0.0271
    227  CG        21.2870   45.2590    2.9590 C.3   225  LYS225      0.0035
    228  CD        22.8190   45.2420    3.0020 C.3   225  LYS225      0.0206
    229  CE        23.3810   46.4770    3.6970 C.3   225  LYS225      0.1093
    230  NZ        24.8350   46.1890    4.0910 N.3   225  LYS225     -0.1314
    231  N         37.9110   51.1970    4.0070 N.3   305  LEU305     -0.1245
    232  CA        37.8950   51.2770    5.4660 C.3   305  LEU305      0.1561
    233  C         37.4170   49.9580    6.0830 C.2   305  LEU305      0.2260
    234  O         37.7390   49.7120    7.2680 O.2   305  LEU305     -0.2867
    235  CB        36.9820   52.4150    5.9370 C.3   305  LEU305      0.0270
    236  CG        37.5340   53.8350    5.7770 C.3   305  LEU305      0.0019
    237  CD1       36.5100   54.8580    6.2610 C.3   305  LEU305      0.0001
    238  CD2       38.8250   53.9650    6.5860 C.3   305  LEU305      0.0001
@<TRIPOS>BOND
     1   214   215    1
     2   209   208    2
     3   216   215    1
     4   216   217    2
     5   218   215    1
     6   218   219    1
     7   208   207    1
     8   219   221   ar
     9   219   220   ar
    10   206   207    1
    11   207   210    1
    12   225   224    2
    13   212   211   ar
    14   210   211    1
    15   222   223    1
    16   211   213   ar
    17   224   223    1
    18   200   199    2
    19   226   223    1
    20   226   227    1
    21    93    94    2
    22    93    92    1
    23    91    92    1
    24   188   187    2
    25   199   198    1
    26   227   228    1
    27    92    95    1
    28   228   229    1
    29   187   186    1
    30   187   197   am
    31   185   186    1
    32   186   189    1
    33   229   230    1
    34   198   197    1
    35   198   201    1
    36   231   232    1
    37   205   203   am
    38   193   191   ar
    39   193   195   ar
    40    95    96    1
    41   191   190   ar
    42    86    85    2
    43   189   190    1
    44   196   195    1
    45   195   194   ar
    46   190   192   ar
    47   202   201    1
    48   202   203    1
    49   203   204    2
    50   100    99    1
    51    96    97    1
    52    97    98    1
    53   232   235    1
    54   232   233    1
    55   194   192   ar
    56   236   235    1
    57   236   237    1
    58   236   238    1
    59    85    84    1
    60    99    98    2
    61    99   101    1
    62    87    84    1
    63    87    88    1
    64   233   234    2
    65    81    80   ar
    66    90    88   ar
    67    84    83    1
    68    88    89   ar
    69    80    82   ar
    70    80    79    1
    71   125   124   ar
    72   135   134    1
    73   126   124   ar
    74    74    72   ar
    75    78    77    2
    76    79    76    1
    77     1     2    1
    78   124   123    1
    79    10     9    1
    80    76    77    1
    81    76    75    1
    82   122   121    2
    83   161   159   ar
    84   161   160   ar
    85    12    13    1
    86    65    64    1
    87   142   140    1
    88   141   140    1
    89   134   133    1
    90    18    17    1
    91    16    13    1
    92    16    17    1
    93    72    73   ar
    94    72    71    1
    95    70    69    2
    96    66    64    1
    97   159   157   ar
    98    13    14    1
    99    19    17    1
   100     2     3    1
   101     2     5    1
   102    75    69   am
   103    52    51   ar
   104    52    50   ar
   105   160   158   ar
   106     6     5    1
   107     6     7    1
   108   140   137    1
   109     9    11    1
   110     9     8    2
   111   123   120    1
   112   121   120    1
   113    69    68    1
   114    51    49   ar
   115    64    63    1
   116   120   119    1
   117     3     4    2
   118    71    68    1
   119   133   132    1
   120    63    60    1
   121    62    61    2
   122     7     8    1
   123   157   156   ar
   124    50    48   ar
   125    14    15    2
   126    14    20   am
   127   158   156   ar
   128   180   179    2
   129    68    67    1
   130   137   136    1
   131   137   138    1
   132    60    61    1
   133    60    59    1
   134    49    48   ar
   135   156   155    1
   136   179   178    1
   137   132   131    1
   138   117   116    2
   139   178   177    1
   140   178   181    1
   141   136   129   am
   142    20    21    1
   143    35    33    1
   144    48    47    1
   145   118   116   am
   146   184   182    1
   147   138   139    2
   148    28    29    1
   149   131   128    1
   150   116   115    1
   151    33    32    1
   152    59    55   am
   153   182   181    1
   154   129   128    1
   155   129   130    2
   156   155   152    1
   157    56    55    2
   158   181   183    1
   159    46    45    2
   160    29    32    1
   161    29    30    1
   162   113   112    2
   163    21    22    1
   164    21    24    1
   165    22    23    2
   166   128   127    1
   167    55    54    1
   168    47    44    1
   169    32    34    1
   170   111   112    1
   171   111   114    1
   172   111   110    1
   173    45    44    1
   174   115   114    1
   175    25    24    1
   176    25    27    1
   177    24    26    1
   178   152   151    1
   179   152   153    1
   180    44    43    1
   181    30    31    2
   182    57    54    1
   183    57    58    1
   184   151   145   am
   185    54    53    1
   186   150   148    1
   187   147   148    1
   188   147   144    1
   189   108   107    1
   190    41    40    1
   191   153   154    2
   192   145   144    1
   193   145   146    2
   194   149   148    1
   195   143   144    1
   196   176   174    1
   197    39    38    2
   198   175   174    1
   199   105   104    2
   200   167   166    1
   201    40    42    1
   202    40    37    1
   203   168   166    1
   204    38    37    1
   205   107   109    1
   206   107   106    1
   207   174   173    1
   208   166   163    1
   209   173   170    1
   210   103   104    1
   211   103   106    1
   212   103   102    1
   213    37    36    1
   214   169   170    1
   215   169   164   am
   216   170   171    1
   217   163   162    1
   218   163   164    1
   219   164   165    2
   220   171   172    2
