@<TRIPOS>MOLECULE
tmp/2zexA00.pdb
 121 114 0 0 0
SMALL
GASTEIGER

@<TRIPOS>ATOM
      1  N          0.7470   19.1530   33.9430 N.3    21  GLN21      -0.1245
      2  CA         1.5810   18.3230   33.0610 C.3    21  GLN21       0.1566
      3  C          2.3270   17.2890   33.8970 C.2    21  GLN21       0.2260
      4  O          2.8590   17.6230   34.9590 O.2    21  GLN21      -0.2867
      5  CB         2.5990   19.1810   32.3000 C.3    21  GLN21       0.0367
      6  CG         2.0080   20.3190   31.4850 C.3    21  GLN21       0.0905
      7  CD         2.9450   21.5200   31.3520 C.2    21  GLN21       0.2608
      8  OE1        2.4920   22.6600   31.3240 O.2    21  GLN21      -0.2717
      9  NE2        4.2520   21.2670   31.2780 N.am   21  GLN21      -0.0878
     10  N          5.4240   15.1580   33.7670 N.3    23  TRP23      -0.1227
     11  CA         6.6410   15.1480   32.9580 C.3    23  TRP23       0.1737
     12  C          7.3380   13.7940   32.8460 C.2    23  TRP23       0.2595
     13  O          7.9260   13.4870   31.8040 O.2    23  TRP23      -0.2718
     14  CB         7.6210   16.1840   33.4960 C.3    23  TRP23       0.0564
     15  CG         7.1380   17.5900   33.4050 C.ar   23  TRP23       0.0003
     16  CD1        6.2800   18.1090   32.4830 C.ar   23  TRP23       0.0946
     17  CD2        7.4950   18.6650   34.2780 C.ar   23  TRP23       0.0152
     18  NE1        6.0890   19.4500   32.7200 N.ar   23  TRP23      -0.2442
     19  CE2        6.8270   19.8170   33.8160 C.ar   23  TRP23       0.0810
     20  CE3        8.3320   18.7700   35.3970 C.ar   23  TRP23       0.0012
     21  CZ2        6.9500   21.0530   34.4470 C.ar   23  TRP23       0.0191
     22  CZ3        8.4550   20.0100   36.0220 C.ar   23  TRP23       0.0001
     23  CH2        7.7710   21.1230   35.5400 C.ar   23  TRP23       0.0015
     24  N          7.2760   12.9930   33.9020 N.am   24  GLN24      -0.1979
     25  CA         7.9810   11.7140   33.9620 C.3    24  GLN24       0.1601
     26  C          7.0270   10.5260   34.0810 C.2    24  GLN24       0.2287
     27  O          7.4420    9.4200   34.4390 O.2    24  GLN24      -0.2864
     28  CB         8.9810   11.7090   35.1270 C.3    24  GLN24       0.0394
     29  CG        10.2950   12.4460   34.8460 C.3    24  GLN24       0.0908
     30  CD        10.1640   13.9600   34.8270 C.2    24  GLN24       0.2608
     31  OE1        9.4590   14.5490   35.6480 O.2    24  GLN24      -0.2717
     32  NE2       10.8730   14.6010   33.9060 N.am   24  GLN24      -0.0878
     33  N         10.5290   20.3530   45.6170 N.3    80  ASP80      -0.1239
     34  CA        10.5650   21.7960   45.4560 C.3    80  ASP80       0.1674
     35  C          9.3230   22.2800   44.7120 C.2    80  ASP80       0.2266
     36  O          8.9170   21.6910   43.6940 O.2    80  ASP80      -0.2867
     37  CB        11.8240   22.2100   44.7000 C.3    80  ASP80       0.1410
     38  CG        13.0870   21.6600   45.3330 C.2    80  ASP80       0.3668
     39  OD1       13.0960   21.4430   46.5670 O.co2  80  ASP80      -0.2456
     40  OD2       14.0640   21.4240   44.5880 O.co2  80  ASP80      -0.2456
     41  N          8.1030   25.6650   42.7990 N.3    82  VAL82      -0.1245
     42  CA         8.8690   26.7420   42.1990 C.3    82  VAL82       0.1561
     43  C          8.0280   27.5660   41.2420 C.2    82  VAL82       0.2260
     44  O          7.2950   27.0160   40.4160 O.2    82  VAL82      -0.2867
     45  CB        10.0890   26.1820   41.4030 C.3    82  VAL82       0.0252
     46  CG1       11.0050   27.3270   40.9480 C.3    82  VAL82       0.0019
     47  CG2       10.8720   25.1550   42.2370 C.3    82  VAL82       0.0019
     48  N          8.9530   30.1350   38.2180 N.3    84  GLN84      -0.1245
     49  CA        10.1580   30.4660   37.4760 C.3    84  GLN84       0.1566
     50  C          9.8090   31.1450   36.1550 C.2    84  GLN84       0.2260
     51  O          8.7850   30.8490   35.5390 O.2    84  GLN84      -0.2867
     52  CB        10.9970   29.2030   37.2590 C.3    84  GLN84       0.0367
     53  CG        10.2680   28.0490   36.5800 C.3    84  GLN84       0.0905
     54  CD        10.9270   26.7080   36.8250 C.2    84  GLN84       0.2608
     55  OE1       11.7620   26.5680   37.7190 O.2    84  GLN84      -0.2717
     56  NE2       10.5420   25.7030   36.0360 N.am   84  GLN84      -0.0878
     57  N         17.3450   34.0820   34.6630 N.3    94  TYR94      -0.1241
     58  CA        16.2970   33.1380   35.0360 C.3    94  TYR94       0.1605
     59  C         16.0360   33.3090   36.5160 C.2    94  TYR94       0.2264
     60  O         16.9610   33.2520   37.3300 O.2    94  TYR94      -0.2867
     61  CB        16.7270   31.7060   34.7500 C.3    94  TYR94       0.0534
     62  CG        15.6180   30.6760   34.7260 C.ar   94  TYR94      -0.0201
     63  CD1       14.4550   30.8680   33.9800 C.ar   94  TYR94      -0.0009
     64  CD2       15.7690   29.4680   35.4010 C.ar   94  TYR94      -0.0009
     65  CE1       13.4640   29.8990   33.9340 C.ar   94  TYR94       0.0417
     66  CE2       14.7890   28.5010   35.3600 C.ar   94  TYR94       0.0417
     67  CZ        13.6490   28.7110   34.6240 C.ar   94  TYR94       0.1957
     68  OH        12.7020   27.7260   34.5850 O.3    94  TYR94      -0.2866
     69  N         13.9300   32.1570   39.9180 N.3    96  GLN96      -0.1245
     70  CA        13.2070   31.0710   40.5760 C.3    96  GLN96       0.1566
     71  C         12.8630   31.4410   42.0020 C.2    96  GLN96       0.2260
     72  O         13.7310   31.8340   42.7800 O.2    96  GLN96      -0.2867
     73  CB        14.0210   29.7760   40.5840 C.3    96  GLN96       0.0367
     74  CG        14.4110   29.2640   39.2090 C.3    96  GLN96       0.0905
     75  CD        15.0610   27.9160   39.2920 C.2    96  GLN96       0.2608
     76  OE1       16.1520   27.7800   39.8480 O.2    96  GLN96      -0.2717
     77  NE2       14.3900   26.8960   38.7670 N.am   96  GLN96      -0.0878
     78  N         11.5070   29.6550   45.2110 N.3    98  ILE98      -0.1245
     79  CA        11.5740   28.2440   45.5590 C.3    98  ILE98       0.1561
     80  C         11.1750   27.9570   46.9980 C.2    98  ILE98       0.2260
     81  O         11.6940   28.5910   47.9300 O.2    98  ILE98      -0.2867
     82  CB        13.0200   27.7030   45.3610 C.3    98  ILE98       0.0252
     83  CG1       13.4770   27.8810   43.9140 C.3    98  ILE98       0.0019
     84  CG2       13.1330   26.2470   45.8150 C.3    98  ILE98       0.0019
     85  CD1       14.9520   27.6460   43.6910 C.3    98  ILE98       0.0001
     86  N         11.4100   24.6070   49.4510 N.3   100  ASN100     -0.1240
     87  CA        12.0160   23.2870   49.5480 C.3   100  ASN100      0.1653
     88  C         11.3560   22.5080   50.6790 C.2   100  ASN100      0.2266
     89  O         11.2410   23.0300   51.8030 O.2   100  ASN100     -0.2867
     90  CB        13.5010   23.4010   49.9050 C.3   100  ASN100      0.1155
     91  CG        14.3270   24.1100   48.8510 C.2   100  ASN100      0.2627
     92  OD1       14.4930   23.6320   47.7280 O.2   100  ASN100     -0.2716
     93  ND2       14.8690   25.2460   49.2160 N.am  100  ASN100     -0.0877
     94  N          6.2470   29.6130   34.8730 N.3   124  GLN124     -0.1245
     95  CA         5.9070   28.2270   35.0920 C.3   124  GLN124      0.1566
     96  C          5.9150   27.9400   36.5800 C.2   124  GLN124      0.2260
     97  O          6.7860   28.4120   37.3190 O.2   124  GLN124     -0.2867
     98  CB         6.9200   27.3370   34.4040 C.3   124  GLN124      0.0367
     99  CG         6.6520   25.8640   34.5460 C.3   124  GLN124      0.0905
    100  CD         7.5780   25.0540   33.6880 C.2   124  GLN124      0.2608
    101  OE1        8.7940   25.1960   33.7690 O.2   124  GLN124     -0.2717
    102  NE2        7.0090   24.2080   32.8320 N.am  124  GLN124     -0.0878
    103  N          6.4610   24.8440   38.8460 N.3   126  ALA126     -0.1245
    104  CA         7.0360   23.5150   38.8260 C.3   126  ALA126      0.1562
    105  C          6.9030   22.8450   40.1850 C.2   126  ALA126      0.2260
    106  O          7.1640   23.4550   41.2300 O.2   126  ALA126     -0.2867
    107  CB         8.5060   23.5540   38.4100 C.3   126  ALA126      0.0290
    108  N          8.7460   19.8200   41.6240 N.3   128  TRP128     -0.1241
    109  CA         9.8910   19.0110   41.2350 C.3   128  TRP128      0.1605
    110  C         10.3890   18.1710   42.3920 C.2   128  TRP128      0.2264
    111  O         10.9740   18.6850   43.3590 O.2   128  TRP128     -0.2867
    112  CB        11.0080   19.8960   40.6880 C.3   128  TRP128      0.0550
    113  CG        12.2120   19.1170   40.2720 C.ar  128  TRP128      0.0003
    114  CD1       13.4610   19.1900   40.8060 C.ar  128  TRP128      0.0946
    115  CD2       12.2660   18.1010   39.2590 C.ar  128  TRP128      0.0152
    116  NE1       14.3010   18.3020   40.1780 N.ar  128  TRP128     -0.2442
    117  CE2       13.5930   17.6130   39.2300 C.ar  128  TRP128      0.0810
    118  CE3       11.3290   17.5610   38.3720 C.ar  128  TRP128      0.0012
    119  CZ2       14.0110   16.6200   38.3370 C.ar  128  TRP128      0.0191
    120  CZ3       11.7400   16.5520   37.5050 C.ar  128  TRP128      0.0001
    121  CH2       13.0680   16.1010   37.4910 C.ar  128  TRP128      0.0015
@<TRIPOS>BOND
     1     9     7   am
     2     8     7    2
     3     7     6    1
     4     6     5    1
     5    13    12    2
     6     5     2    1
     7    16    18   ar
     8    16    15   ar
     9    18    19   ar
    10   102   100   am
    11    12    11    1
    12    12    24   am
    13    11    14    1
    14    11    10    1
    15     2     3    1
    16     2     1    1
    17    15    14    1
    18    15    17   ar
    19   100   101    2
    20   100    99    1
    21    19    17   ar
    22    19    21   ar
    23     3     4    2
    24    24    25    1
    25    32    30   am
    26    65    63   ar
    27    65    67   ar
    28    25    26    1
    29    25    28    1
    30    63    62   ar
    31    26    27    2
    32    17    20   ar
    33    98    99    1
    34    98    95    1
    35    21    23   ar
    36    68    67    1
    37    67    66   ar
    38    57    58    1
    39    62    61    1
    40    62    64   ar
    41    61    58    1
    42    30    29    1
    43    30    31    2
    44    29    28    1
    45    94    95    1
    46    58    59    1
    47    95    96    1
    48    66    64   ar
    49    20    22   ar
    50    51    50    2
    51    23    22   ar
    52    56    54   am
    53    50    49    1
    54    59    60    2
    55    96    97    2
    56    53    54    1
    57    53    52    1
    58    54    55    2
    59    52    49    1
    60    49    48    1
    61   121   120   ar
    62   121   119   ar
    63   120   118   ar
    64   119   117   ar
    65   118   115   ar
    66   107   104    1
    67    77    75   am
    68   104   103    1
    69   104   105    1
    70    74    75    1
    71    74    73    1
    72   117   115   ar
    73   117   116   ar
    74   115   113   ar
    75    75    76    2
    76    69    70    1
    77   116   114   ar
    78   105   106    2
    79   113   112    1
    80   113   114   ar
    81    44    43    2
    82    70    73    1
    83    70    71    1
    84   112   109    1
    85    46    45    1
    86   109   108    1
    87   109   110    1
    88    43    42    1
    89    45    42    1
    90    45    47    1
    91    71    72    2
    92    42    41    1
    93   110   111    2
    94    85    83    1
    95    36    35    2
    96    83    82    1
    97    40    38   ar
    98    37    38    1
    99    37    34    1
   100    35    34    1
   101    78    79    1
   102    38    39   ar
   103    82    79    1
   104    82    84    1
   105    34    33    1
   106    79    80    1
   107    80    81    2
   108    92    91    2
   109    91    93   am
   110    91    90    1
   111    86    87    1
   112    87    90    1
   113    87    88    1
   114    88    89    2
