@<TRIPOS>MOLECULE
tmp/2zf0B01.pdb
 194 195 0 0 0
SMALL
GASTEIGER

@<TRIPOS>ATOM
      1  N         22.0980   -5.7990   18.2870 N.3    43  HIS43      -0.1241
      2  CA        21.9930   -7.1650   17.7800 C.3    43  HIS43       0.1621
      3  C         21.2570   -7.2190   16.4460 C.2    43  HIS43       0.2264
      4  O         21.2180   -8.2770   15.8140 O.2    43  HIS43      -0.2867
      5  CB        21.3130   -8.0720   18.8070 C.3    43  HIS43       0.0745
      6  CG        19.8260   -7.9210   18.9080 C.ar   43  HIS43       0.0817
      7  ND1       19.2330   -7.0900   19.8390 N.ar   43  HIS43      -0.2268
      8  CD2       18.8060   -8.5030   18.2280 C.ar   43  HIS43       0.1154
      9  CE1       17.9250   -7.1600   19.7160 C.ar   43  HIS43       0.1986
     10  NE2       17.6320   -8.0030   18.7440 N.ar   43  HIS43      -0.2212
     11  N         25.5320   -9.8050   15.2930 N.3    47  TYR47      -0.1241
     12  CA        25.2690  -10.9070   16.2100 C.3    47  TYR47       0.1605
     13  C         25.8950  -12.1730   15.6330 C.2    47  TYR47       0.2264
     14  O         25.2550  -13.0230   15.0320 O.2    47  TYR47      -0.2867
     15  CB        23.7740  -11.0820   16.4610 C.3    47  TYR47       0.0534
     16  CG        23.4940  -12.0310   17.6100 C.ar   47  TYR47      -0.0201
     17  CD1       23.8670  -11.6870   18.9010 C.ar   47  TYR47      -0.0009
     18  CD2       22.8690  -13.2480   17.3960 C.ar   47  TYR47      -0.0009
     19  CE1       23.6210  -12.5440   19.9610 C.ar   47  TYR47       0.0417
     20  CE2       22.6190  -14.1020   18.4490 C.ar   47  TYR47       0.0417
     21  CZ        22.9940  -13.7470   19.7240 C.ar   47  TYR47       0.1957
     22  OH        22.7480  -14.6000   20.7740 O.3    47  TYR47      -0.2866
     23  N         24.6790  -15.7530   15.0890 N.3    50  TRP50      -0.1241
     24  CA        23.7850  -16.0500   13.9630 C.3    50  TRP50       0.1605
     25  C         24.4200  -15.6180   12.6530 C.2    50  TRP50       0.2264
     26  O         23.7650  -15.5140   11.6210 O.2    50  TRP50      -0.2867
     27  CB        22.4300  -15.3680   14.1510 C.3    50  TRP50       0.0550
     28  CG        21.7050  -15.9810   15.3170 C.ar   50  TRP50       0.0003
     29  CD1       22.0130  -17.1350   15.9740 C.ar   50  TRP50       0.0946
     30  CD2       20.5390  -15.4540   15.9600 C.ar   50  TRP50       0.0152
     31  NE1       21.1080  -17.3660   16.9910 N.ar   50  TRP50      -0.2442
     32  CE2       20.1950  -16.3400   16.9950 C.ar   50  TRP50       0.0810
     33  CE3       19.7700  -14.3080   15.7360 C.ar   50  TRP50       0.0012
     34  CZ2       19.0960  -16.1180   17.8240 C.ar   50  TRP50       0.0191
     35  CZ3       18.6820  -14.1000   16.5650 C.ar   50  TRP50       0.0001
     36  CH2       18.3570  -14.9940   17.5900 C.ar   50  TRP50       0.0015
     37  N         27.5640   -9.0200   22.8100 N.3    92  TRP92      -0.1241
     38  CA        26.8330  -10.0540   22.0700 C.3    92  TRP92       0.1605
     39  C         27.2320  -11.4330   22.5580 C.2    92  TRP92       0.2264
     40  O         26.5120  -12.4070   22.3220 O.2    92  TRP92      -0.2867
     41  CB        27.0670   -9.9180   20.5670 C.3    92  TRP92       0.0550
     42  CG        28.5140   -9.8470   20.1770 C.ar   92  TRP92       0.0003
     43  CD1       29.2410   -8.7070   19.9630 C.ar   92  TRP92       0.0946
     44  CD2       29.3980  -10.9540   19.9570 C.ar   92  TRP92       0.0152
     45  NE1       30.5370   -9.0450   19.6240 N.ar   92  TRP92      -0.2442
     46  CE2       30.6580  -10.4080   19.6140 C.ar   92  TRP92       0.0810
     47  CE3       29.2580  -12.3470   20.0250 C.ar   92  TRP92       0.0012
     48  CZ2       31.7650  -11.2140   19.3320 C.ar   92  TRP92       0.0191
     49  CZ3       30.3560  -13.1480   19.7440 C.ar   92  TRP92       0.0001
     50  CH2       31.5970  -12.5740   19.4020 C.ar   92  TRP92       0.0015
     51  N         27.4420  -12.6950   25.6240 N.3    94  GLU94      -0.1231
     52  CA        26.7470  -13.3100   26.7590 C.3    94  GLU94       0.1699
     53  C         25.3030  -12.8900   26.9120 C.2    94  GLU94       0.2592
     54  O         24.4100  -13.7350   26.8650 O.2    94  GLU94      -0.2718
     55  CB        27.5400  -12.9750   28.0360 C.3    94  GLU94       0.0402
     56  CG        26.8630  -13.4550   29.3100 C.3    94  GLU94       0.1161
     57  CD        27.3690  -12.7480   30.5520 C.2    94  GLU94       0.3649
     58  OE1       28.4260  -12.0830   30.4740 O.co2  94  GLU94      -0.2457
     59  OE2       26.7140  -12.8510   31.6130 O.co2  94  GLU94      -0.2457
     60  N         25.0280  -11.5950   27.1250 N.am   95  ASN95      -0.1960
     61  CA        23.6720  -11.2290   27.5030 C.3    95  ASN95       0.1819
     62  C         23.1410  -10.0130   26.7700 C.2    95  ASN95       0.2621
     63  O         22.1220   -9.4340   27.1750 O.2    95  ASN95      -0.2715
     64  CB        23.6470  -10.9450   29.0110 C.3    95  ASN95       0.1195
     65  CG        24.7530   -9.9880   29.4150 C.2    95  ASN95       0.2630
     66  OD1       25.5020   -9.4850   28.5760 O.2    95  ASN95      -0.2716
     67  ND2       24.8690   -9.7240   30.7140 N.am   95  ASN95      -0.0877
     68  N         23.8030   -9.5830   25.7030 N.am   96  LEU96      -0.1977
     69  CA        23.2650   -8.4280   24.9650 C.3    96  LEU96       0.1596
     70  C         23.2740   -7.1730   25.8280 C.2    96  LEU96       0.2287
     71  O         22.4760   -6.2600   25.6120 O.2    96  LEU96      -0.2864
     72  CB        21.8490   -8.7180   24.4700 C.3    96  LEU96       0.0297
     73  CG        21.6740   -8.9940   22.9740 C.3    96  LEU96       0.0022
     74  CD1       22.6680  -10.0340   22.4830 C.3    96  LEU96       0.0001
     75  CD2       20.2470   -9.4360   22.6670 C.3    96  LEU96       0.0001
     76  N         19.6120  -15.7310   32.5990 N.3   172  ILE172     -0.1245
     77  CA        20.5420  -14.7660   32.0160 C.3   172  ILE172      0.1561
     78  C         20.9340  -13.7040   33.0340 C.2   172  ILE172      0.2260
     79  O         20.1120  -13.1890   33.8030 O.2   172  ILE172     -0.2867
     80  CB        19.9070  -14.0750   30.7890 C.3   172  ILE172      0.0252
     81  CG1       19.1900  -15.0410   29.8430 C.3   172  ILE172      0.0019
     82  CG2       20.9100  -13.2340   30.0080 C.3   172  ILE172      0.0019
     83  CD1       20.1140  -15.6650   28.8150 C.3   172  ILE172      0.0001
     84  N          3.6950   -8.7800   24.5420 N.3   192  ASP192     -0.1225
     85  CA         5.1660   -8.7480   24.6140 C.3   192  ASP192      0.1805
     86  C          5.6600   -8.4400   23.2020 C.2   192  ASP192      0.2598
     87  O          4.8560   -8.6010   22.2920 O.2   192  ASP192     -0.2718
     88  CB         5.6970  -10.0620   25.1300 C.3   192  ASP192      0.1424
     89  CG         7.1730  -10.2830   25.3080 C.2   192  ASP192      0.3668
     90  OD1        8.0170   -9.3690   25.2280 O.co2 192  ASP192     -0.2456
     91  OD2        7.5370  -11.4610   25.5680 O.co2 192  ASP192     -0.2456
     92  N          6.9070   -8.0350   23.0800 N.am  193  ALA193     -0.1966
     93  CA         7.6130   -8.0050   21.8200 C.3   193  ALA193      0.1728
     94  C          7.9180   -9.4460   21.4290 C.2   193  ALA193      0.2616
     95  O          7.8060  -10.3740   22.2390 O.2   193  ALA193     -0.2715
     96  CB         8.9050   -7.2070   21.8990 C.3   193  ALA193      0.0334
     97  N          8.3110   -9.6070   20.1690 N.am  194  CYS194     -0.1954
     98  CA         8.7030  -10.9380   19.7070 C.3   194  CYS194      0.1843
     99  C          9.7140  -10.7680   18.5770 C.2   194  CYS194      0.2625
    100  O         10.1420   -9.6410   18.3050 O.2   194  CYS194     -0.2714
    101  CB         7.4840  -11.7590   19.3080 C.3   194  CYS194      0.0997
    102  SG         7.7780  -13.5530   19.2590 S.3   194  CYS194     -0.0797
    103  N         10.0760  -11.8770   17.9530 N.am  195  GLU195     -0.1977
    104  CA        11.0520  -11.8540   16.8650 C.3   195  GLU195      0.1602
    105  C         10.6180  -10.8620   15.7960 C.2   195  GLU195      0.2287
    106  O          9.4630  -10.8650   15.3640 O.2   195  GLU195     -0.2864
    107  CB        11.2120  -13.2780   16.3410 C.3   195  GLU195      0.0415
    108  CG        11.1240  -13.4910   14.8450 C.3   195  GLU195      0.1163
    109  CD        12.0770  -14.5790   14.3670 C.2   195  GLU195      0.3649
    110  OE1       12.7650  -14.3720   13.3420 O.co2 195  GLU195     -0.2457
    111  OE2       12.1410  -15.6440   15.0140 O.co2 195  GLU195     -0.2457
    112  N         12.8110   -6.5000   17.5820 N.3   198  SER198     -0.1217
    113  CA        14.1570   -6.0840   17.9170 C.3   198  SER198      0.1889
    114  C         14.4740   -4.6760   17.3990 C.2   198  SER198      0.2288
    115  O         14.1180   -4.3890   16.2530 O.2   198  SER198     -0.2866
    116  CB        15.1930   -7.0310   17.3010 C.3   198  SER198      0.2089
    117  OG        15.1370   -8.3500   17.8110 O.3   198  SER198     -0.2183
    118  N         13.7850   -2.6840   22.2630 N.3   218  VAL218     -0.1231
    119  CA        13.4890   -4.1090   22.3000 C.3   218  VAL218      0.1692
    120  C         14.7960   -4.8750   22.1590 C.2   218  VAL218      0.2593
    121  O         15.5280   -4.7410   21.1790 O.2   218  VAL218     -0.2718
    122  CB        12.4750   -4.4780   21.2020 C.3   218  VAL218      0.0266
    123  CG1       12.1360   -5.9660   21.2450 C.3   218  VAL218      0.0020
    124  CG2       11.2280   -3.6240   21.3550 C.3   218  VAL218      0.0020
    125  N         15.1410   -5.6770   23.1740 N.am  219  SER219     -0.1938
    126  CA        16.4840   -6.2650   23.1040 C.3   219  SER219      0.2055
    127  C         16.4360   -7.7830   23.1170 C.2   219  SER219      0.2643
    128  O         16.9030   -8.4640   22.2100 O.2   219  SER219     -0.2714
    129  CB        17.2960   -5.7160   24.2760 C.3   219  SER219      0.2130
    130  OG        18.6100   -6.2540   24.2990 O.3   219  SER219     -0.2179
    131  N         15.8610   -8.3670   24.1700 N.am  220  TRP220     -0.1959
    132  CA        15.7820   -9.8170   24.2060 C.3   220  TRP220      0.1771
    133  C         14.6730  -10.2880   25.1420 C.2   220  TRP220      0.2620
    134  O         14.2450   -9.5600   26.0250 O.2   220  TRP220     -0.2715
    135  CB        17.1060  -10.4320   24.6380 C.3   220  TRP220      0.0590
    136  CG        17.5810  -10.0860   26.0080 C.ar  220  TRP220      0.0006
    137  CD1       18.2910   -8.9590   26.3180 C.ar  220  TRP220      0.0946
    138  CD2       17.4240  -10.8040   27.2370 C.ar  220  TRP220      0.0152
    139  NE1       18.5770   -8.9400   27.6600 N.ar  220  TRP220     -0.2442
    140  CE2       18.0590  -10.0580   28.2490 C.ar  220  TRP220      0.0810
    141  CE3       16.8170  -12.0060   27.6130 C.ar  220  TRP220      0.0012
    142  CZ2       18.1170  -10.4450   29.5950 C.ar  220  TRP220      0.0191
    143  CZ3       16.8690  -12.3930   28.9450 C.ar  220  TRP220      0.0001
    144  CH2       17.5120  -11.6210   29.9250 C.ar  220  TRP220      0.0015
    145  N         14.2800  -11.5180   24.8730 N.am  221  GLY221     -0.1940
    146  CA        13.3130  -12.2820   25.6280 C.3   221  GLY221      0.2014
    147  C         13.5230  -13.7700   25.4070 C.2   221  GLY221      0.2639
    148  O         14.1260  -14.2130   24.4290 O.2   221  GLY221     -0.2714
    149  N         13.0180  -14.5720   26.3380 N.am  222  GLU222     -0.1963
    150  CA        13.1090  -16.0180   26.1590 C.3   222  GLU222      0.1733
    151  C         11.7040  -16.4690   25.7900 C.2   222  GLU222      0.2617
    152  O         10.8170  -16.5260   26.6350 O.2   222  GLU222     -0.2715
    153  CB        13.6510  -16.7070   27.4040 C.3   222  GLU222      0.0429
    154  CG        15.0040  -16.1450   27.8360 C.3   222  GLU222      0.1163
    155  CD        15.3510  -16.5200   29.2640 C.2   222  GLU222      0.3649
    156  OE1       14.8690  -15.8440   30.1960 O.co2 222  GLU222     -0.2457
    157  OE2       16.1130  -17.4870   29.4640 O.co2 222  GLU222     -0.2457
    158  N         11.5550  -16.7460   24.5070 N.am  223  GLY223     -0.1940
    159  CA        10.2400  -16.9400   23.9250 C.3   223  GLY223      0.2014
    160  C          9.5500  -15.5820   23.8430 C.2   223  GLY223      0.2639
    161  O         10.2160  -14.5600   24.0040 O.2   223  GLY223     -0.2714
    162  N          8.2540  -15.5740   23.6010 N.am  224  CYS224     -0.1967
    163  CA         7.5040  -14.3310   23.4690 C.3   224  CYS224      0.1712
    164  C          6.2280  -14.4540   24.2980 C.2   224  CYS224      0.2296
    165  O          5.4660  -15.3860   24.0450 O.2   224  CYS224     -0.2864
    166  CB         7.1350  -14.0360   22.0160 C.3   224  CYS224      0.0983
    167  SG         8.5100  -13.9570   20.8560 S.3   224  CYS224     -0.0798
    168  N          9.8930   -9.1680   28.7580 N.3   231  GLY231     -0.1210
    169  CA        10.7000   -8.6720   27.6470 C.3   231  GLY231      0.1956
    170  C         11.8450   -7.8740   28.2430 C.2   231  GLY231      0.2612
    171  O         11.6540   -7.2750   29.3070 O.2   231  GLY231     -0.2717
    172  N         13.0080   -7.8820   27.6050 N.am  232  PHE232     -0.1962
    173  CA        14.1190   -7.0980   28.1490 C.3   232  PHE232      0.1771
    174  C         14.4720   -6.0120   27.1400 C.2   232  PHE232      0.2619
    175  O         14.5770   -6.1780   25.9320 O.2   232  PHE232     -0.2715
    176  CB        15.3200   -7.9660   28.5270 C.3   232  PHE232      0.0574
    177  CG        15.1050   -8.6830   29.8590 C.ar  232  PHE232     -0.0200
    178  CD1       14.2680   -9.7810   29.9410 C.ar  232  PHE232     -0.0042
    179  CD2       15.7360   -8.2490   31.0160 C.ar  232  PHE232     -0.0042
    180  CE1       14.0490  -10.4450   31.1370 C.ar  232  PHE232     -0.0003
    181  CE2       15.5320   -8.9010   32.2220 C.ar  232  PHE232     -0.0003
    182  CZ        14.6870   -9.9890   32.2750 C.ar  232  PHE232     -0.0000
    183  N         14.6490   -4.8230   27.7130 N.am  233  TYR233     -0.1974
    184  CA        14.8280   -3.6240   26.9350 C.3   233  TYR233      0.1639
    185  C         16.1370   -2.9380   27.2940 C.2   233  TYR233      0.2290
    186  O         16.4570   -2.8190   28.4700 O.2   233  TYR233     -0.2864
    187  CB        13.6380   -2.6720   27.1770 C.3   233  TYR233      0.0560
    188  CG        12.3560   -3.3460   26.7250 C.ar  233  TYR233     -0.0198
    189  CD1       11.7110   -4.2600   27.5420 C.ar  233  TYR233     -0.0009
    190  CD2       11.8270   -3.0530   25.4740 C.ar  233  TYR233     -0.0009
    191  CE1       10.5470   -4.8730   27.1240 C.ar  233  TYR233      0.0417
    192  CE2       10.6680   -3.6720   25.0650 C.ar  233  TYR233      0.0417
    193  CZ        10.0310   -4.5750   25.8870 C.ar  233  TYR233      0.1957
    194  OH         8.8740   -5.1820   25.4560 O.3   233  TYR233     -0.2866
@<TRIPOS>BOND
     1    26    25    2
     2    25    24    1
     3   110   109   ar
     4    24    27    1
     5    24    23    1
     6    27    28    1
     7   109   108    1
     8   109   111   ar
     9   108   107    1
    10    14    13    2
    11    11    12    1
    12    28    30   ar
    13    28    29   ar
    14   106   105    2
    15    13    12    1
    16    33    30   ar
    17    33    35   ar
    18   105   104    1
    19     4     3    2
    20    30    32   ar
    21    29    31   ar
    22    12    15    1
    23   115   114    2
    24   107   104    1
    25     3     2    1
    26    15    16    1
    27    35    36   ar
    28   104   103    1
    29    31    32   ar
    30    32    34   ar
    31   116   117    1
    32   116   113    1
    33    18    16   ar
    34    18    20   ar
    35   114   113    1
    36   112   113    1
    37    36    34   ar
    38    16    17   ar
    39     2     1    1
    40     2     5    1
    41   103    99   am
    42     8    10   ar
    43     8     6   ar
    44   100    99    2
    45    20    21   ar
    46    99    98    1
    47    10     9   ar
    48     5     6    1
    49    17    19   ar
    50     6     7   ar
    51   102   101    1
    52   102   167    1
    53   101    98    1
    54    48    50   ar
    55    48    46   ar
    56    50    49   ar
    57    46    45   ar
    58    46    44   ar
    59    45    43   ar
    60    98    97    1
    61     9     7   ar
    62    21    19   ar
    63    21    22    1
    64    49    47   ar
    65    44    47   ar
    66    44    42   ar
    67    43    42   ar
    68    97    94   am
    69    42    41    1
    70    41    38    1
    71   167   166    1
    72   121   120    2
    73   122   123    1
    74   122   124    1
    75   122   119    1
    76    94    93    1
    77    94    95    2
    78    93    96    1
    79    93    92    1
    80   166   163    1
    81    38    39    1
    82    38    37    1
    83   120   119    1
    84   120   125   am
    85   128   127    2
    86   118   119    1
    87    87    86    2
    88    40    39    2
    89    74    73    1
    90    75    73    1
    91    73    72    1
    92    92    86   am
    93   126   127    1
    94   126   125    1
    95   126   129    1
    96   127   131   am
    97    86    85    1
    98   163   162    1
    99   163   164    1
   100   162   160   am
   101   160   159    1
   102   160   161    2
   103   159   158    1
   104   165   164    2
   105   131   132    1
   106   132   135    1
   107   132   133    1
   108   129   130    1
   109   148   147    2
   110    72    69    1
   111   158   151   am
   112    84    85    1
   113    85    88    1
   114   135   136    1
   115   145   133   am
   116   145   146    1
   117    69    68    1
   118    69    70    1
   119   192   190   ar
   120   192   193   ar
   121    88    89    1
   122   133   134    2
   123    90    89   ar
   124    89    91   ar
   125   147   146    1
   126   147   149   am
   127   194   193    1
   128   190   188   ar
   129    71    70    2
   130    51    52    1
   131    68    62   am
   132   151   150    1
   133   151   152    2
   134   193   191   ar
   135   175   174    2
   136   136   137   ar
   137   136   138   ar
   138   150   149    1
   139   150   153    1
   140   137   139   ar
   141   188   187    1
   142   188   189   ar
   143    52    53    1
   144    52    55    1
   145    62    63    2
   146    62    61    1
   147    54    53    2
   148    53    60   am
   149   184   187    1
   150   184   185    1
   151   184   183    1
   152   191   189   ar
   153    60    61    1
   154   174   183   am
   155   174   173    1
   156   138   141   ar
   157   138   140   ar
   158   185   186    2
   159   153   154    1
   160    61    64    1
   161   172   173    1
   162   172   170   am
   163   141   143   ar
   164   169   170    1
   165   169   168    1
   166   139   140   ar
   167   154   155    1
   168    55    56    1
   169   173   176    1
   170   170   171    2
   171   140   142   ar
   172   176   177    1
   173    66    65    2
   174    83    81    1
   175   143   144   ar
   176    64    65    1
   177   155   157   ar
   178   155   156   ar
   179    56    57    1
   180    65    67   am
   181   142   144   ar
   182    81    80    1
   183   177   178   ar
   184   177   179   ar
   185   178   180   ar
   186    82    80    1
   187    58    57   ar
   188    57    59   ar
   189    80    77    1
   190   179   181   ar
   191   180   182   ar
   192    77    76    1
   193    77    78    1
   194   181   182   ar
   195    78    79    2
