@<TRIPOS>MOLECULE
tmp/2zf0B00.pdb
 172 164 0 0 0
SMALL
GASTEIGER

@<TRIPOS>ATOM
      1  N         11.5660    1.1140   10.2550 N.3    17  MET17      -0.1245
      2  CA        11.7530   -0.2710    9.8420 C.3    17  MET17       0.1570
      3  C         13.1520   -0.4210    9.2480 C.2    17  MET17       0.2261
      4  O         13.5230    0.2620    8.2970 O.2    17  MET17      -0.2867
      5  CB        10.6960   -0.7310    8.8440 C.3    17  MET17       0.0387
      6  CG        10.8350   -2.2170    8.4990 C.3    17  MET17       0.0595
      7  SD         9.7640   -2.7120    7.1280 S.3    17  MET17      -0.1393
      8  CE         8.1590   -2.6640    7.9270 C.3    17  MET17       0.0692
      9  N         15.2570   -2.4910    7.0010 N.3    19  PHE19      -0.1241
     10  CA        14.8470   -3.3670    5.9020 C.3    19  PHE19       0.1605
     11  C         16.0490   -3.9030    5.1480 C.2    19  PHE19       0.2264
     12  O         16.9840   -3.1570    4.8510 O.2    19  PHE19      -0.2867
     13  CB        13.9030   -2.5790    4.9890 C.3    19  PHE19       0.0534
     14  CG        13.2050   -3.4450    3.9540 C.ar   19  PHE19      -0.0203
     15  CD1       13.5580   -3.3420    2.6170 C.ar   19  PHE19      -0.0042
     16  CD2       12.2140   -4.3350    4.3300 C.ar   19  PHE19      -0.0042
     17  CE1       12.9310   -4.1300    1.6670 C.ar   19  PHE19      -0.0003
     18  CE2       11.5820   -5.1210    3.3830 C.ar   19  PHE19      -0.0003
     19  CZ        11.9380   -5.0160    2.0510 C.ar   19  PHE19      -0.0000
     20  N         17.9890   -5.1160    1.8840 N.3    21  LYS21      -0.1245
     21  CA        17.9110   -4.8490    0.4480 C.3    21  LYS21       0.1561
     22  C         17.6290   -6.1450   -0.2990 C.2    21  LYS21       0.2260
     23  O         16.6090   -6.2590   -0.9750 O.2    21  LYS21      -0.2867
     24  CB        19.1910   -4.2020   -0.0800 C.3    21  LYS21       0.0271
     25  CG        19.3430   -2.7210    0.1990 C.3    21  LYS21       0.0035
     26  CD        20.7930   -2.2660    0.2150 C.3    21  LYS21       0.0206
     27  CE        21.0990   -1.2780   -0.9010 C.3    21  LYS21       0.1093
     28  NZ        22.0210   -0.1750   -0.4900 N.3    21  LYS21      -0.1314
     29  N         17.8830  -10.4860    0.4030 N.3    23  PRO23      -0.2102
     30  CA        16.4900  -10.4390   -0.0470 C.3    23  PRO23       0.1504
     31  C         15.6600   -9.4310    0.7510 C.2    23  PRO23       0.2576
     32  O         15.7880   -9.2930    1.9650 O.2    23  PRO23      -0.2718
     33  CB        15.9770  -11.8490    0.2360 C.3    23  PRO23       0.0282
     34  CG        16.7850  -12.2860    1.4120 C.3    23  PRO23       0.0208
     35  CD        18.1510  -11.6940    1.2050 C.3    23  PRO23       0.0893
     36  N         14.8360   -8.7030    0.0030 N.am   24  GLN24      -0.1966
     37  CA        14.0190   -7.6580    0.6070 C.3    24  GLN24       0.1733
     38  C         13.2040   -8.2570    1.7470 C.2    24  GLN24       0.2616
     39  O         12.3040   -9.0610    1.5330 O.2    24  GLN24      -0.2715
     40  CB        13.1310   -6.9850   -0.4410 C.3    24  GLN24       0.0408
     41  CG        13.9020   -6.4670   -1.6400 C.3    24  GLN24       0.0908
     42  CD        13.6240   -5.0210   -1.9890 C.2    24  GLN24       0.2608
     43  OE1       14.5140   -4.1700   -1.8880 O.2    24  GLN24      -0.2717
     44  NE2       12.3990   -4.7180   -2.4130 N.am   24  GLN24      -0.0878
     45  N         13.5540   -7.8520    2.9650 N.am   25  GLU25      -0.1963
     46  CA        12.8090   -8.3110    4.1340 C.3    25  GLU25       0.1733
     47  C         12.9820   -7.3810    5.3280 C.2    25  GLU25       0.2616
     48  O         13.9160   -6.5880    5.4360 O.2    25  GLU25      -0.2715
     49  CB        13.2470   -9.7350    4.4870 C.3    25  GLU25       0.0429
     50  CG        14.7470   -9.8400    4.7380 C.3    25  GLU25       0.1163
     51  CD        15.1140  -11.2110    5.2800 C.2    25  GLU25       0.3649
     52  OE1       16.1430  -11.3250    5.9740 O.co2  25  GLU25      -0.2457
     53  OE2       14.3530  -12.1610    5.0030 O.co2  25  GLU25      -0.2457
     54  N         12.0390   -7.4550    6.2650 N.am   26  LEU26      -0.1977
     55  CA        12.1930   -6.6390    7.4730 C.3    26  LEU26       0.1596
     56  C         13.3300   -7.2240    8.2970 C.2    26  LEU26       0.2287
     57  O         13.3450   -8.4480    8.4780 O.2    26  LEU26      -0.2864
     58  CB        10.8740   -6.6170    8.2280 C.3    26  LEU26       0.0297
     59  CG        10.8330   -6.0270    9.6320 C.3    26  LEU26       0.0022
     60  CD1        9.5570   -5.2210    9.8470 C.3    26  LEU26       0.0001
     61  CD2       10.9370   -7.1250   10.6760 C.3    26  LEU26       0.0001
     62  N         18.5350   -0.4880    4.1650 N.3    60  LEU60      -0.1245
     63  CA        17.6470    0.6360    3.9800 C.3    60  LEU60       0.1561
     64  C         16.8880    0.9460    5.2660 C.2    60  LEU60       0.2260
     65  O         16.5800    0.0570    6.0640 O.2    60  LEU60      -0.2867
     66  CB        16.6540    0.3140    2.8560 C.3    60  LEU60       0.0270
     67  CG        17.2730    0.2540    1.4580 C.3    60  LEU60       0.0019
     68  CD1       16.2140   -0.0810    0.4270 C.3    60  LEU60       0.0001
     69  CD2       17.9520    1.5770    1.1120 C.3    60  LEU60       0.0001
     70  N         13.2520    2.3580    6.5340 N.3    62  ARG62      -0.1245
     71  CA        11.9230    2.7720    6.0820 C.3    62  ARG62       0.1563
     72  C         11.1500    3.4810    7.1980 C.2    62  ARG62       0.2260
     73  O         10.7580    2.8810    8.2010 O.2    62  ARG62      -0.2867
     74  CB        11.1180    1.5770    5.5560 C.3    62  ARG62       0.0307
     75  CG        11.8500    0.8010    4.4710 C.3    62  ARG62       0.0489
     76  CD        11.0870   -0.3660    3.8970 C.3    62  ARG62       0.2205
     77  NE         9.8270   -0.0290    3.2450 N.pl3  62  ARG62      -0.0865
     78  CZ         9.0680   -0.9400    2.6260 C.cat  62  ARG62       0.5346
     79  NH1        9.4230   -2.2190    2.5700 N.pl3  62  ARG62       0.1354
     80  NH2        7.9260   -0.5770    2.0540 N.pl3  62  ARG62       0.1354
     81  N          2.9200   -3.5770    7.0530 N.3    68  ARG68      -0.1231
     82  CA         4.2260   -4.2200    7.2320 C.3    68  ARG68       0.1694
     83  C          4.9170   -4.4220    5.8860 C.2    68  ARG68       0.2593
     84  O          6.0840   -4.0730    5.7050 O.2    68  ARG68      -0.2718
     85  CB         4.0890   -5.5620    7.9540 C.3    68  ARG68       0.0321
     86  CG         5.3960   -6.3410    7.9880 C.3    68  ARG68       0.0489
     87  CD         5.2800   -7.6010    8.8330 C.3    68  ARG68       0.2205
     88  NE         4.3760   -8.5500    8.1910 N.pl3  68  ARG68      -0.0865
     89  CZ         4.6660   -9.3700    7.1970 C.cat  68  ARG68       0.5346
     90  NH1        3.7210  -10.1750    6.7190 N.pl3  68  ARG68       0.1354
     91  NH2        5.8820   -9.4000    6.6710 N.pl3  68  ARG68       0.1354
     92  N          4.1750   -4.9920    4.9330 N.am   69  THR69      -0.1939
     93  CA         4.7760   -5.4030    3.6690 C.3    69  THR69       0.2028
     94  C          4.6210   -4.3960    2.5490 C.2    69  THR69       0.2642
     95  O          5.3190   -4.4680    1.5340 O.2    69  THR69      -0.2714
     96  CB         4.1560   -6.7300    3.1810 C.3    69  THR69       0.1808
     97  OG1        2.7370   -6.6090    3.2260 O.3    69  THR69      -0.2208
     98  CG2        4.5490   -7.8700    4.1090 C.3    69  THR69       0.0379
     99  N          3.7160   -3.4260    2.6900 N.am   70  ARG70      -0.1963
    100  CA         3.4920   -2.5670    1.5300 C.3    70  ARG70       0.1729
    101  C          4.4910   -1.4380    1.3750 C.2    70  ARG70       0.2616
    102  O          5.0050   -0.8500    2.3230 O.2    70  ARG70      -0.2715
    103  CB         2.0750   -1.9910    1.6000 C.3    70  ARG70       0.0348
    104  CG         1.0890   -3.0370    1.0310 C.3    70  ARG70       0.0492
    105  CD        -0.3360   -2.5020    1.2010 C.3    70  ARG70       0.2205
    106  NE        -0.4900   -1.2590    0.4010 N.pl3  70  ARG70      -0.0865
    107  CZ        -0.5880   -0.0320    0.9730 C.cat  70  ARG70       0.5346
    108  NH1       -0.6380    0.1310    2.2850 N.pl3  70  ARG70       0.1354
    109  NH2       -0.6950    0.9630    0.0480 N.pl3  70  ARG70       0.1354
    110  N          4.7610   -1.1000    0.1090 N.am   71  TYR71      -0.1974
    111  CA         5.4250    0.1750   -0.1470 C.3    71  TYR71       0.1639
    112  C          4.3540    1.2500    0.0500 C.2    71  TYR71       0.2290
    113  O          3.3440    1.2350   -0.6700 O.2    71  TYR71      -0.2864
    114  CB         6.0310    0.2660   -1.5370 C.3    71  TYR71       0.0560
    115  CG         6.6680    1.6060   -1.8390 C.ar   71  TYR71      -0.0198
    116  CD1        7.7320    2.0520   -1.0600 C.ar   71  TYR71      -0.0009
    117  CD2        6.2060    2.4100   -2.8810 C.ar   71  TYR71      -0.0009
    118  CE1        8.3390    3.2720   -1.3040 C.ar   71  TYR71       0.0417
    119  CE2        6.8110    3.6390   -3.1300 C.ar   71  TYR71       0.0417
    120  CZ         7.8660    4.0550   -2.3420 C.ar   71  TYR71       0.1957
    121  OH         8.4730    5.2650   -2.5840 O.3    71  TYR71      -0.2866
    122  N          3.9950    7.8580   -1.2050 N.3    74  ASN74      -0.1240
    123  CA         3.7040    9.1990   -0.7410 C.3    74  ASN74       0.1653
    124  C          3.6840    9.2860    0.7800 C.2    74  ASN74       0.2266
    125  O          3.4630   10.3600    1.3460 O.2    74  ASN74      -0.2867
    126  CB         2.3630    9.6800   -1.3130 C.3    74  ASN74       0.1155
    127  CG         2.3520    9.7840   -2.8250 C.2    74  ASN74       0.2627
    128  OD1        3.3100    9.4310   -3.5160 O.2    74  ASN74      -0.2716
    129  ND2        1.2490   10.2710   -3.3810 N.am   74  ASN74      -0.0877
    130  N          5.5670    6.5880    3.3190 N.3    76  GLU76      -0.1231
    131  CA         6.8660    6.2210    3.8930 C.3    76  GLU76       0.1699
    132  C          7.9520    6.9360    3.0940 C.2    76  GLU76       0.2592
    133  O          7.7200    7.3920    1.9730 O.2    76  GLU76      -0.2718
    134  CB         7.0410    4.7150    3.9270 C.3    76  GLU76       0.0402
    135  CG         6.9200    3.9690    2.6120 C.3    76  GLU76       0.1161
    136  CD         7.4590    2.5540    2.7250 C.2    76  GLU76       0.3649
    137  OE1        8.7030    2.4250    2.7290 O.co2  76  GLU76      -0.2457
    138  OE2        6.6470    1.6040    2.8290 O.co2  76  GLU76      -0.2457
    139  N          9.1000    7.0430    3.7380 N.am   77  LYS77      -0.1966
    140  CA        10.3510    7.4830    3.1530 C.3    77  LYS77       0.1728
    141  C         11.3940    6.3960    3.4290 C.2    77  LYS77       0.2616
    142  O         11.4950    5.9330    4.5700 O.2    77  LYS77      -0.2715
    143  CB        10.8060    8.8240    3.7140 C.3    77  LYS77       0.0311
    144  CG         9.8780    9.9830    3.3930 C.3    77  LYS77       0.0038
    145  CD         9.5730   10.0730    1.9080 C.3    77  LYS77       0.0206
    146  CE         8.5430   11.1610    1.6230 C.3    77  LYS77       0.1093
    147  NZ         7.4760   10.6840    0.6920 N.3    77  LYS77      -0.1314
    148  N         12.1290    5.9870    2.4040 N.am   78  ILE78      -0.1977
    149  CA        13.1740    4.9730    2.5810 C.3    78  ILE78       0.1596
    150  C         14.5340    5.6530    2.6010 C.2    78  ILE78       0.2287
    151  O         14.8320    6.4070    1.6700 O.2    78  ILE78      -0.2864
    152  CB        13.0910    3.9160    1.4640 C.3    78  ILE78       0.0276
    153  CG1       11.6470    3.5780    1.0950 C.3    78  ILE78       0.0022
    154  CG2       13.8940    2.6820    1.8210 C.3    78  ILE78       0.0022
    155  CD1       11.3280    2.1190    0.8840 C.3    78  ILE78       0.0001
    156  N         18.9400    5.7680    3.1760 N.3    80  MET80      -0.1245
    157  CA        20.1390    4.9420    3.0360 C.3    80  MET80       0.1570
    158  C         21.0580    5.1870    4.2220 C.2    80  MET80       0.2261
    159  O         21.0380    6.2870    4.7790 O.2    80  MET80      -0.2867
    160  CB        20.8840    5.2360    1.7370 C.3    80  MET80       0.0387
    161  CG        20.6230    4.2030    0.6450 C.3    80  MET80       0.0595
    162  SD        20.9790    4.8310   -1.0100 S.3    80  MET80      -0.1393
    163  CE        21.7520    6.3990   -0.6170 C.3    80  MET80       0.0692
    164  N          2.7690  -13.0700   11.2540 N.3   149  GLN149     -0.1245
    165  CA         3.1920  -11.7500   10.8210 C.3   149  GLN149      0.1566
    166  C          1.9770  -10.8260   10.7130 C.2   149  GLN149      0.2260
    167  O          0.9520  -11.2140   10.1570 O.2   149  GLN149     -0.2867
    168  CB         3.9020  -11.7790    9.4730 C.3   149  GLN149      0.0367
    169  CG         5.4040  -11.5550    9.5550 C.3   149  GLN149      0.0905
    170  CD         6.1550  -12.7950    9.0930 C.2   149  GLN149      0.2608
    171  OE1        7.0290  -12.7100    8.2330 O.2   149  GLN149     -0.2717
    172  NE2        5.7950  -13.9350    9.6700 N.am  149  GLN149     -0.0878
@<TRIPOS>BOND
     1   128   127    2
     2   129   127   am
     3   119   117   ar
     4   119   120   ar
     5   117   115   ar
     6   127   126    1
     7   121   120    1
     8    44    42   am
     9   120   118   ar
    10    42    43    2
    11    42    41    1
    12   115   114    1
    13   115   116   ar
    14    41    40    1
    15   114   111    1
    16   126   123    1
    17   118   116   ar
    18   122   123    1
    19   162   163    1
    20   162   161    1
    21    23    22    2
    22    27    28    1
    23    27    26    1
    24   123   124    1
    25   113   112    2
    26    40    37    1
    27    22    21    1
    28   111   112    1
    29   111   110    1
    30    24    25    1
    31    24    21    1
    32    30    33    1
    33    30    29    1
    34    30    31    1
    35    36    37    1
    36    36    31   am
    37   109   107    1
    38   110   101   am
    39    25    26    1
    40    33    34    1
    41   106   107    2
    42   106   105    1
    43    29    35    1
    44    68    67    1
    45    21    20    1
    46    37    38    1
    47   161   160    1
    48   147   146    1
    49    31    32    2
    50   124   125    2
    51   155   153    1
    52   107   108    1
    53   104   105    1
    54   104   103    1
    55   153   152    1
    56    69    67    1
    57    35    34    1
    58   101   100    1
    59   101   102    2
    60    67    66    1
    61   152   154    1
    62   152   149    1
    63   100   103    1
    64   100    99    1
    65    39    38    2
    66    95    94    2
    67   146   145    1
    68    17    19   ar
    69    17    15   ar
    70   151   150    2
    71   160   157    1
    72    38    45   am
    73   145   144    1
    74   133   132    2
    75    19    18   ar
    76    80    78    1
    77   148   149    1
    78   148   141   am
    79    94    99   am
    80    94    93    1
    81    79    78    1
    82   149   150    1
    83   135   136    1
    84   135   134    1
    85    15    14   ar
    86    78    77    2
    87   136   137   ar
    88   136   138   ar
    89    66    63    1
    90    45    46    1
    91   157   156    1
    92   157   158    1
    93   132   139   am
    94   132   131    1
    95   140   141    1
    96   140   143    1
    97   140   139    1
    98    96    97    1
    99    96    93    1
   100    96    98    1
   101    77    76    1
   102   130   131    1
   103    18    16   ar
   104   144   143    1
   105   141   142    2
   106    93    92    1
   107   131   134    1
   108    76    75    1
   109    14    16   ar
   110    14    13    1
   111    63    62    1
   112    63    64    1
   113    46    49    1
   114    46    47    1
   115   158   159    2
   116    75    74    1
   117    49    50    1
   118    50    51    1
   119    12    11    2
   120    92    83   am
   121    13    10    1
   122    53    51   ar
   123    11    10    1
   124    64    65    2
   125    51    52   ar
   126    47    48    2
   127    47    54   am
   128    74    71    1
   129    84    83    2
   130    83    82    1
   131    10     9    1
   132    71    70    1
   133    71    72    1
   134    54    55    1
   135    91    89    1
   136    90    89    1
   137    81    82    1
   138     7     8    1
   139     7     6    1
   140    89    88    2
   141    72    73    2
   142    82    85    1
   143    55    58    1
   144    55    56    1
   145    85    86    1
   146    86    87    1
   147    88    87    1
   148    58    59    1
   149   171   170    2
   150     4     3    2
   151    56    57    2
   152     6     5    1
   153     5     2    1
   154   170   169    1
   155   170   172   am
   156     3     2    1
   157   168   169    1
   158   168   165    1
   159    59    60    1
   160    59    61    1
   161     2     1    1
   162   167   166    2
   163   166   165    1
   164   165   164    1
