@<TRIPOS>MOLECULE
tmp/2zf4E00.pdb
 103 97 0 0 0
SMALL
GASTEIGER

@<TRIPOS>ATOM
      1  N          1.2320    0.3380  -36.6150 N.3    13  TYR13      -0.1241
      2  CA         1.9260    1.5980  -36.7410 C.3    13  TYR13       0.1605
      3  C          1.0650    2.6960  -36.1290 C.2    13  TYR13       0.2264
      4  O         -0.1730    2.5590  -36.0030 O.2    13  TYR13      -0.2867
      5  CB         2.2570    1.8970  -38.2100 C.3    13  TYR13       0.0534
      6  CG         1.0540    2.3300  -39.0120 C.ar   13  TYR13      -0.0201
      7  CD1        0.6220    3.6590  -38.9930 C.ar   13  TYR13      -0.0009
      8  CD2        0.3380    1.4090  -39.7700 C.ar   13  TYR13      -0.0009
      9  CE1       -0.4920    4.0600  -39.7200 C.ar   13  TYR13       0.0417
     10  CE2       -0.7750    1.7950  -40.5010 C.ar   13  TYR13       0.0417
     11  CZ        -1.1890    3.1240  -40.4680 C.ar   13  TYR13       0.1957
     12  OH        -2.2950    3.5020  -41.1870 O.3    13  TYR13      -0.2866
     13  N          0.9120    6.9020  -36.5410 N.3    15  SER15      -0.1217
     14  CA         1.3600    7.8530  -37.5290 C.3    15  SER15       0.1889
     15  C          0.9130    9.2270  -37.0760 C.2    15  SER15       0.2288
     16  O         -0.2280    9.3910  -36.6340 O.2    15  SER15      -0.2866
     17  CB         0.7350    7.4920  -38.8790 C.3    15  SER15       0.2089
     18  OG         1.2600    8.2800  -39.9190 O.3    15  SER15      -0.2183
     19  N         -2.9310    8.7800  -35.9120 N.3    27  THR27      -0.1218
     20  CA        -3.6890    7.6390  -36.4000 C.3    27  THR27       0.1862
     21  C         -2.9490    6.3480  -36.1730 C.2    27  THR27       0.2287
     22  O         -1.7360    6.3480  -35.9930 O.2    27  THR27      -0.2866
     23  CB        -3.9860    7.7270  -37.9420 C.3    27  THR27       0.1770
     24  OG1       -2.7590    7.9060  -38.6610 O.3    27  THR27      -0.2211
     25  CG2       -4.9940    8.8410  -38.2620 C.3    27  THR27       0.0375
     26  N         -0.6690   -1.7480  -46.3270 N.3    42  ILE42      -0.1245
     27  CA        -0.9620   -0.8520  -45.2080 C.3    42  ILE42       0.1561
     28  C         -2.4800   -0.6550  -45.0590 C.2    42  ILE42       0.2260
     29  O         -3.1700   -0.3590  -46.0430 O.2    42  ILE42      -0.2867
     30  CB        -0.2280    0.5070  -45.3490 C.3    42  ILE42       0.0252
     31  CG1        1.2450    0.2750  -45.7340 C.3    42  ILE42       0.0019
     32  CG2       -0.3570    1.3210  -44.0560 C.3    42  ILE42       0.0019
     33  CD1        2.1150    1.5070  -45.7060 C.3    42  ILE42       0.0001
     34  N         -5.2470    1.4350  -42.6230 N.3    44  GLY44      -0.1210
     35  CA        -5.4980    2.4630  -41.6000 C.3    44  GLY44       0.1956
     36  C         -6.1590    3.7280  -42.1090 C.2    44  GLY44       0.2612
     37  O         -6.2390    3.9530  -43.3200 O.2    44  GLY44      -0.2717
     38  N         -6.6410    4.5510  -41.1790 N.am   45  LEU45      -0.1965
     39  CA        -7.0800    5.9120  -41.5130 C.3    45  LEU45       0.1728
     40  C         -5.9180    6.6430  -42.1600 C.2    45  LEU45       0.2616
     41  O         -4.8360    6.7640  -41.5580 O.2    45  LEU45      -0.2715
     42  CB        -7.5630    6.6720  -40.2740 C.3    45  LEU45       0.0311
     43  CG        -9.0510    6.9250  -39.9810 C.3    45  LEU45       0.0022
     44  CD1      -10.0530    6.1490  -40.8380 C.3    45  LEU45       0.0001
     45  CD2       -9.3430    6.7410  -38.4930 C.3    45  LEU45       0.0001
     46  N         -6.1370    7.1040  -43.3900 N.am   46  PHE46      -0.1960
     47  CA        -5.0810    7.7580  -44.1550 C.3    46  PHE46       0.1771
     48  C         -4.6480    9.0750  -43.5150 C.2    46  PHE46       0.2619
     49  O         -5.4730    9.9390  -43.1940 O.2    46  PHE46      -0.2715
     50  CB        -5.4660    7.9640  -45.6430 C.3    46  PHE46       0.0574
     51  CG        -4.2880    8.3130  -46.5270 C.ar   46  PHE46      -0.0200
     52  CD1       -4.0760    9.6220  -46.9470 C.ar   46  PHE46      -0.0042
     53  CD2       -3.3770    7.3370  -46.9110 C.ar   46  PHE46      -0.0042
     54  CE1       -2.9840    9.9610  -47.7610 C.ar   46  PHE46      -0.0003
     55  CE2       -2.2720    7.6550  -47.7110 C.ar   46  PHE46      -0.0003
     56  CZ        -2.0780    8.9730  -48.1380 C.ar   46  PHE46      -0.0000
     57  N         -3.3370    9.1930  -43.3350 N.am   47  ASN47      -0.1972
     58  CA        -2.6950   10.3270  -42.6820 C.3    47  ASN47       0.1688
     59  C         -1.5750   10.8130  -43.6050 C.2    47  ASN47       0.2292
     60  O         -0.6710   10.0350  -43.9200 O.2    47  ASN47      -0.2864
     61  CB        -2.0990    9.8620  -41.3360 C.3    47  ASN47       0.1181
     62  CG        -1.7530   11.0140  -40.3960 C.2    47  ASN47       0.2629
     63  OD1       -1.4690   12.1400  -40.8270 O.2    47  ASN47      -0.2716
     64  ND2       -1.7530   10.7240  -39.0920 N.am   47  ASN47      -0.0877
     65  N         -8.2420    3.4330  -45.6080 N.3    60  MET60      -0.1245
     66  CA        -7.7530    2.7650  -46.8190 C.3    60  MET60       0.1570
     67  C         -6.9760    1.4930  -46.4730 C.2    60  MET60       0.2261
     68  O         -6.3280    1.4110  -45.4370 O.2    60  MET60      -0.2867
     69  CB        -6.9350    3.7400  -47.6910 C.3    60  MET60       0.0387
     70  CG        -6.3860    3.1700  -48.9930 C.3    60  MET60       0.0595
     71  SD        -5.7740    4.4420  -50.1390 S.3    60  MET60      -0.1393
     72  CE        -4.2090    4.9100  -49.4360 C.3    60  MET60       0.0692
     73  N         -4.0910   -0.6510  -48.6190 N.3    62  GLU62      -0.1245
     74  CA        -3.3070   -0.6470  -49.8610 C.3    62  GLU62       0.1567
     75  C         -2.3550   -1.8290  -49.9680 C.2    62  GLU62       0.2260
     76  O         -1.5730   -2.0940  -49.0460 O.2    62  GLU62      -0.2867
     77  CB        -2.5390    0.6780  -50.0570 C.3    62  GLU62       0.0388
     78  CG        -1.6970    0.7060  -51.3350 C.3    62  GLU62       0.1160
     79  CD        -1.1360    2.0730  -51.7040 C.2    62  GLU62       0.3649
     80  OE1       -1.1640    3.0170  -50.8780 O.co2  62  GLU62      -0.2457
     81  OE2       -0.6580    2.2020  -52.8540 O.co2  62  GLU62      -0.2457
     82  N          7.0260    0.9340  -49.8670 N.3   101  PHE101     -0.1241
     83  CA         7.0070    2.2180  -49.1440 C.3   101  PHE101      0.1605
     84  C          8.2970    2.5010  -48.3800 C.2   101  PHE101      0.2264
     85  O          8.6890    3.6590  -48.2090 O.2   101  PHE101     -0.2867
     86  CB         5.7890    2.3400  -48.2270 C.3   101  PHE101      0.0534
     87  CG         4.4960    2.6070  -48.9580 C.ar  101  PHE101     -0.0203
     88  CD1        4.3090    3.7920  -49.6690 C.ar  101  PHE101     -0.0042
     89  CD2        3.4610    1.6790  -48.9260 C.ar  101  PHE101     -0.0042
     90  CE1        3.1110    4.0370  -50.3400 C.ar  101  PHE101     -0.0003
     91  CE2        2.2640    1.9150  -49.5820 C.ar  101  PHE101     -0.0003
     92  CZ         2.0890    3.0910  -50.2870 C.ar  101  PHE101     -0.0000
     93  N          6.3270    7.7930  -38.1920 N.3   159  ARG159     -0.1245
     94  CA         5.6430    6.4960  -38.0580 C.3   159  ARG159      0.1563
     95  C          6.3830    5.5910  -37.0790 C.2   159  ARG159      0.2260
     96  O          7.5700    5.2890  -37.2710 O.2   159  ARG159     -0.2867
     97  CB         5.5090    5.7580  -39.3980 C.3   159  ARG159      0.0307
     98  CG         4.3950    6.2300  -40.3140 C.3   159  ARG159      0.0489
     99  CD         4.9630    7.1480  -41.3550 C.3   159  ARG159      0.2205
    100  NE         4.0990    7.3860  -42.5080 N.pl3 159  ARG159     -0.0865
    101  CZ         4.5550    7.8590  -43.6730 C.cat 159  ARG159      0.5346
    102  NH1        5.8510    8.1220  -43.8250 N.pl3 159  ARG159      0.1354
    103  NH2        3.7260    8.0740  -44.6870 N.pl3 159  ARG159      0.1354
@<TRIPOS>BOND
     1    81    79   ar
     2    79    78    1
     3    79    80   ar
     4    78    77    1
     5    90    92   ar
     6    90    88   ar
     7    92    91   ar
     8    71    72    1
     9    71    70    1
    10    77    74    1
    11    75    74    1
    12    75    76    2
    13    82    83    1
    14    74    73    1
    15    88    87   ar
    16    91    89   ar
    17    83    84    1
    18    83    86    1
    19    70    69    1
    20    87    89   ar
    21    87    86    1
    22    84    85    2
    23    56    54   ar
    24    56    55   ar
    25    54    52   ar
    26    55    53   ar
    27    69    66    1
    28    52    51   ar
    29    53    51   ar
    30    66    67    1
    31    66    65    1
    32    51    50    1
    33    67    68    2
    34    26    27    1
    35    29    28    2
    36    31    33    1
    37    31    30    1
    38    50    47    1
    39    30    27    1
    40    30    32    1
    41    27    28    1
    42   103   101    1
    43    47    48    1
    44    47    46    1
    45    60    59    2
    46   102   101    1
    47   101   100    2
    48    59    58    1
    49    48    57   am
    50    48    49    2
    51    46    40   am
    52    57    58    1
    53    37    36    2
    54    58    61    1
    55    34    35    1
    56   100    99    1
    57    40    41    2
    58    40    39    1
    59    36    35    1
    60    36    38   am
    61    39    38    1
    62    39    42    1
    63    99    98    1
    64    61    62    1
    65    12    11    1
    66    44    43    1
    67    63    62    2
    68    10    11   ar
    69    10     8   ar
    70    11     9   ar
    71    62    64   am
    72    98    97    1
    73    42    43    1
    74    43    45    1
    75    18    17    1
    76     8     6   ar
    77     9     7   ar
    78    97    94    1
    79     6     7   ar
    80     6     5    1
    81    17    14    1
    82    24    23    1
    83    25    23    1
    84     5     2    1
    85    93    94    1
    86    94    95    1
    87    23    20    1
    88    14    15    1
    89    14    13    1
    90    96    95    2
    91    15    16    2
    92     2     1    1
    93     2     3    1
    94    20    21    1
    95    20    19    1
    96    21    22    2
    97     3     4    2
