@<TRIPOS>MOLECULE
tmp/2zfgA01.pdb
 113 107 0 0 0
SMALL
GASTEIGER

@<TRIPOS>ATOM
      1  N          8.6900   34.0510    7.1370 N.3   224  ILE224     -0.1245
      2  CA         8.7460   33.3910    5.8420 C.3   224  ILE224      0.1561
      3  C          7.5930   33.8920    4.9690 C.2   224  ILE224      0.2260
      4  O          6.4730   34.0730    5.4700 O.2   224  ILE224     -0.2867
      5  CB         8.6120   31.8560    6.0030 C.3   224  ILE224      0.0252
      6  CG1        9.8040   31.2850    6.7790 C.3   224  ILE224      0.0019
      7  CG2        8.5270   31.1730    4.6390 C.3   224  ILE224      0.0019
      8  CD1        9.4840   29.9650    7.5110 C.3   224  ILE224      0.0001
      9  N          6.0360   32.6880    1.2230 N.3   226  LEU226     -0.1245
     10  CA         6.0100   31.8760    0.0170 C.3   226  LEU226      0.1561
     11  C          4.6680   32.0520   -0.6240 C.2   226  LEU226      0.2260
     12  O          3.6530   32.0200    0.0720 O.2   226  LEU226     -0.2867
     13  CB         6.1860   30.3950    0.3510 C.3   226  LEU226      0.0270
     14  CG         7.4060   30.0530    1.2130 C.3   226  LEU226      0.0019
     15  CD1        7.2460   28.7120    1.9300 C.3   226  LEU226      0.0001
     16  CD2        8.6530   30.0480    0.3690 C.3   226  LEU226      0.0001
     17  N          9.5060   33.5740   -3.2580 N.3   260  ALA260     -0.1231
     18  CA         9.9580   33.1020   -1.9710 C.3   260  ALA260      0.1694
     19  C         10.8310   34.1750   -1.3420 C.2   260  ALA260      0.2592
     20  O         11.7540   34.6800   -1.9840 O.2   260  ALA260     -0.2718
     21  CB        10.7440   31.7910   -2.1330 C.3   260  ALA260      0.0304
     22  N         10.5000   34.5460   -0.1070 N.am  261  GLN261     -0.1966
     23  CA        11.2240   35.5920    0.6040 C.3   261  GLN261      0.1733
     24  C         11.3980   35.2320    2.0640 C.2   261  GLN261      0.2616
     25  O         10.6230   34.4430    2.6200 O.2   261  GLN261     -0.2715
     26  CB        10.4830   36.9330    0.4820 C.3   261  GLN261      0.0408
     27  CG        10.2970   37.3470   -0.9560 C.3   261  GLN261      0.0908
     28  CD         9.5620   38.6630   -1.1270 C.2   261  GLN261      0.2608
     29  OE1        8.8300   39.0980   -0.2470 O.2   261  GLN261     -0.2717
     30  NE2        9.7460   39.2820   -2.2720 N.am  261  GLN261     -0.0878
     31  N         12.4090   35.8270    2.6900 N.am  262  TYR262     -0.1974
     32  CA        12.6370   35.6630    4.1220 C.3   262  TYR262      0.1639
     33  C         12.9960   37.0030    4.7430 C.2   262  TYR262      0.2290
     34  O         13.7620   37.7480    4.1650 O.2   262  TYR262     -0.2864
     35  CB        13.7550   34.6280    4.4090 C.3   262  TYR262      0.0560
     36  CG        13.8340   34.2590    5.8760 C.ar  262  TYR262     -0.0198
     37  CD1       12.9380   33.3450    6.4260 C.ar  262  TYR262     -0.0009
     38  CD2       14.7730   34.8470    6.7220 C.ar  262  TYR262     -0.0009
     39  CE1       12.9810   33.0140    7.7810 C.ar  262  TYR262      0.0417
     40  CE2       14.8260   34.5200    8.0870 C.ar  262  TYR262      0.0417
     41  CZ        13.9240   33.6020    8.5990 C.ar  262  TYR262      0.1957
     42  OH        13.9540   33.2640    9.9360 O.3   262  TYR262     -0.2866
     43  N         17.4820   42.5360    6.5960 N.3   268  LEU268     -0.1245
     44  CA        17.6190   42.0830    5.2110 C.3   268  LEU268      0.1561
     45  C         16.4730   41.1590    4.8180 C.2   268  LEU268      0.2260
     46  O         16.1450   40.2420    5.5650 O.2   268  LEU268     -0.2867
     47  CB        18.9540   41.3460    5.0250 C.3   268  LEU268      0.0270
     48  CG        19.2630   40.8950    3.5960 C.3   268  LEU268      0.0019
     49  CD1       19.5200   42.1080    2.7200 C.3   268  LEU268      0.0001
     50  CD2       20.4700   39.9380    3.5700 C.3   268  LEU268      0.0001
     51  N         15.8450   38.9350    1.5460 N.3   270  PRO270     -0.2102
     52  CA        16.1380   38.3720    0.2410 C.3   270  PRO270      0.1504
     53  C         14.8730   37.8930   -0.4640 C.2   270  PRO270      0.2576
     54  O         13.9020   37.4930    0.1930 O.2   270  PRO270     -0.2718
     55  CB        17.0200   37.1570    0.5820 C.3   270  PRO270      0.0282
     56  CG        16.5690   36.7540    1.9630 C.3   270  PRO270      0.0208
     57  CD        16.3990   38.1080    2.6330 C.3   270  PRO270      0.0893
     58  N         14.9130   37.9120   -1.7870 N.am  271  SER271     -0.1938
     59  CA        13.7890   37.4970   -2.6120 C.3   271  SER271      0.2055
     60  C         14.2830   36.6580   -3.7770 C.2   271  SER271      0.2642
     61  O         15.3140   36.9830   -4.3950 O.2   271  SER271     -0.2714
     62  CB        13.0750   38.7530   -3.1460 C.3   271  SER271      0.2130
     63  OG        12.0180   38.4570   -4.0530 O.3   271  SER271     -0.2179
     64  N         13.5700   35.5670   -4.0590 N.am  272  ILE272     -0.1977
     65  CA        13.7070   34.8790   -5.3320 C.3   272  ILE272      0.1596
     66  C         12.3300   34.6650   -5.9270 C.2   272  ILE272      0.2287
     67  O         11.3450   34.5110   -5.1890 O.2   272  ILE272     -0.2864
     68  CB        14.4840   33.5290   -5.2090 C.3   272  ILE272      0.0276
     69  CG1       13.8000   32.5860   -4.2280 C.3   272  ILE272      0.0022
     70  CG2       15.9450   33.7900   -4.8200 C.3   272  ILE272      0.0022
     71  CD1       14.4300   31.1970   -4.1790 C.3   272  ILE272      0.0001
     72  N         16.2320   37.5170   -8.6610 N.3   296  VAL296     -0.1231
     73  CA        16.9530   37.4870   -7.3940 C.3   296  VAL296      0.1692
     74  C         17.0840   38.9510   -6.9470 C.2   296  VAL296      0.2593
     75  O         17.4190   39.8330   -7.7460 O.2   296  VAL296     -0.2718
     76  CB        18.3530   36.8440   -7.5950 C.3   296  VAL296      0.0266
     77  CG1       19.2300   36.9890   -6.3620 C.3   296  VAL296      0.0020
     78  CG2       18.1850   35.3800   -7.9820 C.3   296  VAL296      0.0020
     79  N         16.7710   39.2020   -5.6870 N.am  297  GLY297     -0.1942
     80  CA        16.8240   40.5530   -5.1440 C.3   297  GLY297      0.2014
     81  C         16.8870   40.5940   -3.6360 C.2   297  GLY297      0.2638
     82  O         16.8560   39.5750   -2.9710 O.2   297  GLY297     -0.2714
     83  N         16.9540   41.8000   -3.0910 N.am  298  ALA298     -0.1977
     84  CA        16.9340   41.9770   -1.6550 C.3   298  ALA298      0.1597
     85  C         16.5500   43.3940   -1.3340 C.2   298  ALA298      0.2287
     86  O         16.9250   44.3360   -2.0480 O.2   298  ALA298     -0.2864
     87  CB        18.3080   41.6710   -1.0350 C.3   298  ALA298      0.0319
     88  N         17.9960   46.0570   -4.2290 N.3   310  VAL310     -0.1245
     89  CA        18.5460   45.6960   -5.5250 C.3   310  VAL310      0.1561
     90  C         17.6370   44.5990   -6.0640 C.2   310  VAL310      0.2260
     91  O         17.2060   43.7150   -5.3110 O.2   310  VAL310     -0.2867
     92  CB        20.0260   45.2040   -5.4240 C.3   310  VAL310      0.0252
     93  CG1       20.5840   44.9260   -6.8220 C.3   310  VAL310      0.0019
     94  CG2       20.9140   46.2320   -4.7160 C.3   310  VAL310      0.0019
     95  N         17.2580   42.0760   -9.4970 N.3   312  TYR312     -0.1241
     96  CA        17.8910   41.5840  -10.7150 C.3   312  TYR312      0.1605
     97  C         16.9770   40.6120  -11.4380 C.2   312  TYR312      0.2264
     98  O         16.5640   39.5980  -10.8640 O.2   312  TYR312     -0.2867
     99  CB        19.2310   40.9270  -10.3390 C.3   312  TYR312      0.0534
    100  CG        19.9850   40.2640  -11.4710 C.ar  312  TYR312     -0.0201
    101  CD1       19.9180   40.7530  -12.7780 C.ar  312  TYR312     -0.0009
    102  CD2       20.7800   39.1530  -11.2220 C.ar  312  TYR312     -0.0009
    103  CE1       20.6070   40.1250  -13.8280 C.ar  312  TYR312      0.0417
    104  CE2       21.4870   38.5230  -12.2700 C.ar  312  TYR312      0.0417
    105  CZ        21.3910   39.0200  -13.5530 C.ar  312  TYR312      0.1957
    106  OH        22.0890   38.4000  -14.5870 O.3   312  TYR312     -0.2866
    107  N         18.8640   45.2560  -13.9770 N.3   331  VAL331     -0.1245
    108  CA        19.0850   45.3830  -12.5290 C.3   331  VAL331      0.1561
    109  C         18.6020   46.7630  -12.0600 C.2   331  VAL331      0.2260
    110  O         18.9790   47.7860  -12.6180 O.2   331  VAL331     -0.2867
    111  CB        20.5710   45.2380  -12.1480 C.3   331  VAL331      0.0252
    112  CG1       20.7190   45.1770  -10.6200 C.3   331  VAL331      0.0019
    113  CG2       21.1730   43.9970  -12.7980 C.3   331  VAL331      0.0019
@<TRIPOS>BOND
     1   106   105    1
     2   107   108    1
     3   103   105   ar
     4   103   101   ar
     5   105   104   ar
     6   113   111    1
     7   101   100   ar
     8   110   109    2
     9   108   111    1
    10   108   109    1
    11   104   102   ar
    12   111   112    1
    13   100   102   ar
    14   100    99    1
    15    97    98    2
    16    97    96    1
    17    96    99    1
    18    96    95    1
    19    72    73    1
    20    78    76    1
    21    75    74    2
    22    76    73    1
    23    76    77    1
    24    73    74    1
    25    74    79   am
    26    93    92    1
    27    90    89    1
    28    90    91    2
    29    66    65    1
    30    66    67    2
    31    79    80    1
    32    89    92    1
    33    89    88    1
    34    92    94    1
    35    65    68    1
    36    65    64    1
    37    68    70    1
    38    68    69    1
    39    80    81    1
    40    61    60    2
    41    69    71    1
    42    64    60   am
    43    63    62    1
    44    60    59    1
    45    81    83   am
    46    81    82    2
    47    17    18    1
    48    62    59    1
    49    83    84    1
    50    59    58    1
    51    30    28   am
    52    21    18    1
    53    86    85    2
    54    20    19    2
    55    18    19    1
    56    58    53   am
    57    84    85    1
    58    84    87    1
    59    19    22   am
    60    28    27    1
    61    28    29    2
    62    27    26    1
    63    11    10    1
    64    11    12    2
    65    53    54    2
    66    53    52    1
    67    22    23    1
    68    10    13    1
    69    10     9    1
    70    52    55    1
    71    52    51    1
    72    13    14    1
    73    16    14    1
    74    26    23    1
    75    55    56    1
    76    23    24    1
    77    14    15    1
    78    51    57    1
    79    56    57    1
    80    24    25    2
    81    24    31   am
    82    31    32    1
    83    49    48    1
    84    50    48    1
    85    48    47    1
    86    32    35    1
    87    32    33    1
    88    34    33    2
    89    35    36    1
    90     7     5    1
    91    45    44    1
    92    45    46    2
    93     3     4    2
    94     3     2    1
    95    47    44    1
    96    44    43    1
    97     2     5    1
    98     2     1    1
    99    36    37   ar
   100    36    38   ar
   101     5     6    1
   102    37    39   ar
   103    38    40   ar
   104     6     8    1
   105    39    41   ar
   106    40    41   ar
   107    41    42    1
