@<TRIPOS>MOLECULE
tmp/2zfjA00.pdb
 143 135 0 0 0
SMALL
GASTEIGER

@<TRIPOS>ATOM
      1  N         13.7210  -24.9770    6.3460 N.3     7  ARG7       -0.1245
      2  CA        13.4140  -23.6760    5.8070 C.3     7  ARG7        0.1563
      3  C         14.2910  -23.4220    4.5920 C.2     7  ARG7        0.2260
      4  O         15.5140  -23.4550    4.7040 O.2     7  ARG7       -0.2867
      5  CB        13.7140  -22.6530    6.8810 C.3     7  ARG7        0.0307
      6  CG        12.9300  -21.3880    6.7930 C.3     7  ARG7        0.0489
      7  CD        13.5860  -20.3490    7.6680 C.3     7  ARG7        0.2205
      8  NE        12.8650  -19.0830    7.6990 N.pl3   7  ARG7       -0.0865
      9  CZ        13.4100  -17.9260    8.0670 C.cat   7  ARG7        0.5346
     10  NH1       14.6880  -17.8750    8.4280 N.pl3   7  ARG7        0.1354
     11  NH2       12.6760  -16.8210    8.0940 N.pl3   7  ARG7        0.1354
     12  N         15.7110  -20.9200    1.7740 N.3     9  ARG9       -0.1231
     13  CA        15.9100  -19.4880    1.6550 C.3     9  ARG9        0.1679
     14  C         15.7760  -18.9790    0.2360 C.2     9  ARG9        0.2434
     15  O         15.4320  -19.7300   -0.6700 O.2     9  ARG9       -0.2733
     16  CB        17.2910  -19.1400    2.1560 C.3     9  ARG9        0.0321
     17  CG        18.3730  -19.6000    1.2310 C.3     9  ARG9        0.0489
     18  CD        19.6900  -19.1280    1.7520 C.3     9  ARG9        0.2205
     19  NE        20.7950  -19.8840    1.2020 N.pl3   9  ARG9       -0.0865
     20  CZ        21.1200  -19.9110   -0.0830 C.cat   9  ARG9        0.5346
     21  NH1       20.4160  -19.2160   -0.9750 N.pl3   9  ARG9        0.1354
     22  NH2       22.1630  -20.6370   -0.4620 N.pl3   9  ARG9        0.1354
     23  N         16.0170  -17.6730    0.0310 N.am   10  PRO10      -0.2729
     24  CA        15.9090  -17.1580   -1.3290 C.3    10  PRO10       0.1401
     25  C         17.2740  -17.4200   -1.9300 C.2    10  PRO10       0.2269
     26  O         18.2130  -17.7610   -1.2090 O.2    10  PRO10      -0.2865
     27  CB        15.6670  -15.6590   -1.1280 C.3    10  PRO10       0.0296
     28  CG        15.1970  -15.5410    0.3030 C.3    10  PRO10       0.0237
     29  CD        16.0560  -16.5580    0.9930 C.3    10  PRO10       0.0939
     30  N         20.9190  -16.8060   -3.3250 N.3    12  ASN12      -0.1240
     31  CA        21.9030  -15.8730   -2.8580 C.3    12  ASN12       0.1653
     32  C         22.7130  -15.4650   -4.0770 C.2    12  ASN12       0.2266
     33  O         22.4510  -15.9470   -5.1740 O.2    12  ASN12      -0.2867
     34  CB        22.7600  -16.4950   -1.7470 C.3    12  ASN12       0.1155
     35  CG        23.6830  -17.5790   -2.2400 C.2    12  ASN12       0.2627
     36  OD1       24.0240  -17.6330   -3.4210 O.2    12  ASN12      -0.2716
     37  ND2       24.1270  -18.4380   -1.3200 N.am   12  ASN12      -0.0877
     38  N         10.5310  -19.8660    2.4870 N.3    54  SER54      -0.1217
     39  CA        11.0960  -18.5330    2.4110 C.3    54  SER54       0.1889
     40  C         11.9980  -18.3850    1.1840 C.2    54  SER54       0.2288
     41  O         13.1300  -17.9400    1.2710 O.2    54  SER54      -0.2866
     42  CB        11.8670  -18.2330    3.6900 C.3    54  SER54       0.2089
     43  OG        10.9850  -18.2100    4.8020 O.3    54  SER54      -0.2183
     44  N          9.7840  -11.0250    1.8790 N.3    58  PRO58      -0.2116
     45  CA         8.6990  -10.6360    2.8000 C.3    58  PRO58       0.1372
     46  C          7.4540  -10.1000    2.1210 C.2    58  PRO58       0.2244
     47  O          6.4530   -9.8050    2.7900 O.2    58  PRO58      -0.2868
     48  CB         9.3320   -9.5640    3.6870 C.3    58  PRO58       0.0268
     49  CG        10.7880   -9.7000    3.5000 C.3    58  PRO58       0.0207
     50  CD        11.1080  -10.6450    2.3980 C.3    58  PRO58       0.0892
     51  N          4.9210  -16.4200    2.2570 N.3    63  TYR63      -0.1241
     52  CA         6.3330  -16.3570    2.6400 C.3    63  TYR63       0.1605
     53  C          6.4170  -16.5810    4.1420 C.2    63  TYR63       0.2264
     54  O          5.7240  -15.9240    4.9230 O.2    63  TYR63      -0.2867
     55  CB         6.9330  -14.9920    2.2880 C.3    63  TYR63       0.0534
     56  CG         8.3520  -14.7830    2.7800 C.ar   63  TYR63      -0.0201
     57  CD1        8.6180  -14.5660    4.1310 C.ar   63  TYR63      -0.0009
     58  CD2        9.4300  -14.8330    1.8980 C.ar   63  TYR63      -0.0009
     59  CE1        9.9240  -14.4110    4.5970 C.ar   63  TYR63       0.0417
     60  CE2       10.7390  -14.6760    2.3520 C.ar   63  TYR63       0.0417
     61  CZ        10.9810  -14.4710    3.7040 C.ar   63  TYR63       0.1957
     62  OH        12.2760  -14.3650    4.1630 O.3    63  TYR63      -0.2866
     63  N         26.7370  -24.1690    4.9730 N.3    95  THR95      -0.1203
     64  CA        27.0130  -22.7610    5.2810 C.3    95  THR95       0.1994
     65  C         26.2950  -21.9280    4.2140 C.2    95  THR95       0.2618
     66  O         26.4200  -22.1850    3.0130 O.2    95  THR95      -0.2717
     67  CB        28.5280  -22.3950    5.2510 C.3    95  THR95       0.1784
     68  OG1       28.9270  -22.1110    3.9070 O.3    95  THR95      -0.2211
     69  CG2       29.3730  -23.5310    5.7860 C.3    95  THR95       0.0376
     70  N         25.5200  -20.9500    4.6630 N.am   96  GLY96      -0.1956
     71  CA        24.8020  -20.1080    3.7340 C.3    96  GLY96       0.1869
     72  C         23.3860  -20.5850    3.4850 C.2    96  GLY96       0.2309
     73  O         22.6620  -19.9830    2.6990 O.2    96  GLY96      -0.2863
     74  N         21.1330  -20.7140    5.8410 N.3    98  GLY98      -0.1210
     75  CA        20.3030  -19.7860    6.5980 C.3    98  GLY98       0.1956
     76  C         20.2620  -19.8990    8.1110 C.2    98  GLY98       0.2612
     77  O         19.4880  -19.2050    8.7730 O.2    98  GLY98      -0.2717
     78  N         21.0950  -20.7620    8.6700 N.am   99  LYS99      -0.1965
     79  CA        21.1230  -20.9620   10.1140 C.3    99  LYS99       0.1728
     80  C         21.1240  -19.6790   10.9460 C.2    99  LYS99       0.2617
     81  O         20.2450  -19.4810   11.7800 O.2    99  LYS99      -0.2715
     82  CB        22.3340  -21.7950   10.4770 C.3    99  LYS99       0.0311
     83  CG        22.3670  -23.1180    9.7690 C.3    99  LYS99       0.0038
     84  CD        23.6370  -23.8420   10.1120 C.3    99  LYS99       0.0206
     85  CE        24.8060  -23.1270    9.4980 C.3    99  LYS99       0.1093
     86  NZ        24.6650  -23.2210    8.0300 N.3    99  LYS99      -0.1314
     87  N         22.1170  -18.8190   10.7210 N.am  100  SER100     -0.1936
     88  CA        22.2670  -17.5470   11.4400 C.3   100  SER100      0.2055
     89  C         21.1290  -16.5530   11.2060 C.2   100  SER100      0.2643
     90  O         20.6400  -15.9300   12.1470 O.2   100  SER100     -0.2714
     91  CB        23.5850  -16.8770   11.0440 C.3   100  SER100      0.2130
     92  OG        24.6810  -17.7590   11.2080 O.3   100  SER100     -0.2179
     93  N         20.7250  -16.3780    9.9530 N.am  101  TYR101     -0.1959
     94  CA        19.6500  -15.4560    9.6660 C.3   101  TYR101      0.1771
     95  C         18.3840  -15.9220   10.3600 C.2   101  TYR101      0.2620
     96  O         17.4830  -15.1300   10.5990 O.2   101  TYR101     -0.2715
     97  CB        19.3880  -15.3680    8.1700 C.3   101  TYR101      0.0574
     98  CG        18.1830  -14.5040    7.8480 C.ar  101  TYR101     -0.0198
     99  CD1       18.3000  -13.1300    7.6980 C.ar  101  TYR101     -0.0009
    100  CD2       16.9080  -15.0560    7.7700 C.ar  101  TYR101     -0.0009
    101  CE1       17.1760  -12.3330    7.4860 C.ar  101  TYR101      0.0417
    102  CE2       15.7790  -14.2640    7.5560 C.ar  101  TYR101      0.0417
    103  CZ        15.9240  -12.9100    7.4160 C.ar  101  TYR101      0.1957
    104  OH        14.8180  -12.1250    7.1940 O.3   101  TYR101     -0.2866
    105  N         18.3180  -17.2110   10.6830 N.am  102  THR102     -0.1951
    106  CA        17.1430  -17.7780   11.3360 C.3   102  THR102      0.1897
    107  C         17.1990  -17.6740   12.8440 C.2   102  THR102      0.2313
    108  O         16.1850  -17.4360   13.4940 O.2   102  THR102     -0.2863
    109  CB        16.9680  -19.2550   10.9900 C.3   102  THR102      0.1794
    110  OG1       16.6810  -19.3880    9.5930 O.3   102  THR102     -0.2208
    111  CG2       15.8390  -19.8580   11.8120 C.3   102  THR102      0.0378
    112  N         18.3120  -10.1580   11.4140 N.3   106  LYS106     -0.1245
    113  CA        18.8370   -8.8130   11.2090 C.3   106  LYS106      0.1561
    114  C         18.1620   -7.7950   12.1150 C.2   106  LYS106      0.2260
    115  O         17.7120   -8.1300   13.2130 O.2   106  LYS106     -0.2867
    116  CB        18.6860   -8.4030    9.7420 C.3   106  LYS106      0.0271
    117  CG        19.5890   -9.1690    8.7910 C.3   106  LYS106      0.0035
    118  CD        19.4700   -8.6480    7.3830 C.3   106  LYS106      0.0206
    119  CE        20.3590   -9.4280    6.4320 C.3   106  LYS106      0.1093
    120  NZ        20.2150   -8.9450    5.0250 N.3   106  LYS106     -0.1314
    121  N         13.8780   -8.1000   11.0970 N.3   111  GLN111     -0.1245
    122  CA        14.0380   -9.4290   10.5940 C.3   111  GLN111      0.1566
    123  C         14.7020  -10.1660   11.7300 C.2   111  GLN111      0.2260
    124  O         15.4110  -11.1300   11.5090 O.2   111  GLN111     -0.2867
    125  CB        14.9000   -9.3750    9.3520 C.3   111  GLN111      0.0367
    126  CG        14.4200   -8.3180    8.3850 C.3   111  GLN111      0.0905
    127  CD        15.3290   -8.1470    7.2000 C.2   111  GLN111      0.2608
    128  OE1       15.1290   -8.7630    6.1550 O.2   111  GLN111     -0.2717
    129  NE2       16.3440   -7.3060    7.3550 N.am  111  GLN111     -0.0878
    130  N         32.6180  -18.8730   10.2240 N.3   201  SER201     -0.1217
    131  CA        31.3920  -19.6720   10.3270 C.3   201  SER201      0.1889
    132  C         31.7270  -21.1650   10.2870 C.2   201  SER201      0.2288
    133  O         31.2610  -21.9140    9.4180 O.2   201  SER201     -0.2866
    134  CB        30.4390  -19.3210    9.1720 C.3   201  SER201      0.2089
    135  OG        30.1140  -20.4640    8.3860 O.3   201  SER201     -0.2183
    136  N         23.4680  -22.2970   17.0860 N.3   234  ASP234     -0.1239
    137  CA        23.7390  -22.0380   15.6520 C.3   234  ASP234      0.1674
    138  C         24.8770  -22.9770   15.2470 C.2   234  ASP234      0.2266
    139  O         26.0550  -22.6320   15.3060 O.2   234  ASP234     -0.2867
    140  CB        24.1600  -20.5780   15.4110 C.3   234  ASP234      0.1410
    141  CG        24.1400  -20.1770   13.9130 C.2   234  ASP234      0.3668
    142  OD1       24.5680  -20.9880   13.0550 O.co2 234  ASP234     -0.2456
    143  OD2       23.7150  -19.0350   13.6060 O.co2 234  ASP234     -0.2456
@<TRIPOS>BOND
     1    33    32    2
     2    32    31    1
     3    36    35    2
     4    30    31    1
     5    31    34    1
     6    35    34    1
     7    35    37   am
     8    25    24    1
     9    25    26    2
    10    24    27    1
    11    24    23    1
    12    27    28    1
    13    21    20    1
    14    15    14    2
    15    22    20    1
    16    20    19    2
    17    23    14   am
    18    23    29    1
    19    14    13    1
    20    28    29    1
    21    40    41    2
    22    40    39    1
    23    19    18    1
    24    17    18    1
    25    17    16    1
    26    13    12    1
    27    13    16    1
    28    44    50    1
    29    44    45    1
    30    58    60   ar
    31    58    56   ar
    32    46    47    2
    33    46    45    1
    34    51    52    1
    35    55    52    1
    36    55    56    1
    37    60    61   ar
    38    50    49    1
    39    39    38    1
    40    39    42    1
    41    52    53    1
    42    73    72    2
    43    56    57   ar
    44    45    48    1
    45    66    65    2
    46    72    71    1
    47    49    48    1
    48    42    43    1
    49    61    62    1
    50    61    59   ar
    51    71    70    1
    52    68    67    1
    53    57    59   ar
    54    53    54    2
    55    65    70   am
    56    65    64    1
    57     3     4    2
    58     3     2    1
    59    63    64    1
    60   120   119    1
    61    67    64    1
    62    67    69    1
    63     2     1    1
    64     2     5    1
    65    74    75    1
    66   128   127    2
    67   119   118    1
    68    75    76    1
    69     6     5    1
    70     6     7    1
    71   104   103    1
    72   127   129   am
    73   127   126    1
    74   118   117    1
    75   103   101   ar
    76   103   102   ar
    77   101    99   ar
    78   102   100   ar
    79     7     8    1
    80    99    98   ar
    81     8     9    2
    82   100    98   ar
    83    98    97    1
    84    86    85    1
    85     9    11    1
    86     9    10    1
    87    76    78   am
    88    76    77    2
    89    97    94    1
    90   126   125    1
    91   135   134    1
    92    78    79    1
    93   117   116    1
    94   134   131    1
    95   125   122    1
    96   133   132    2
    97    85    84    1
    98   110   109    1
    99    94    93    1
   100    94    95    1
   101   116   113    1
   102    83    84    1
   103    83    82    1
   104    93    89   am
   105    79    82    1
   106    79    80    1
   107   130   131    1
   108   132   131    1
   109    95    96    2
   110    95   105   am
   111   122   121    1
   112   122   123    1
   113   105   106    1
   114    87    80   am
   115    87    88    1
   116    80    81    2
   117   109   106    1
   118   109   111    1
   119    91    92    1
   120    91    88    1
   121    89    88    1
   122    89    90    2
   123   113   112    1
   124   113   114    1
   125   106   107    1
   126   124   123    2
   127   114   115    2
   128   107   108    2
   129   142   141   ar
   130   143   141   ar
   131   141   140    1
   132   138   139    2
   133   138   137    1
   134   140   137    1
   135   137   136    1
