@<TRIPOS>MOLECULE
tmp/2zfnA00.pdb
 234 235 0 0 0
SMALL
GASTEIGER

@<TRIPOS>ATOM
      1  N         27.7200   31.2850   18.0910 N.3    87  VAL87      -0.1231
      2  CA        28.2970   30.0340   17.6090 C.3    87  VAL87       0.1692
      3  C         27.3620   28.8690   18.0070 C.2    87  VAL87       0.2593
      4  O         27.2380   28.4950   19.1800 O.2    87  VAL87      -0.2718
      5  CB        29.7510   29.8460   18.0740 C.3    87  VAL87       0.0266
      6  CG1       30.4050   28.7640   17.2880 C.3    87  VAL87       0.0020
      7  CG2       30.5360   31.1420   17.9610 C.3    87  VAL87       0.0020
      8  N         26.7010   28.2860   17.0120 N.am   88  SER88      -0.1938
      9  CA        25.5560   27.4350   17.2850 C.3    88  SER88       0.2055
     10  C         25.9150   25.9670   17.4170 C.2    88  SER88       0.2643
     11  O         25.6090   25.3450   18.4250 O.2    88  SER88      -0.2714
     12  CB        24.4650   27.6150   16.2230 C.3    88  SER88       0.2130
     13  OG        23.4960   26.6020   16.4090 O.3    88  SER88      -0.2179
     14  N         26.5480   25.4000   16.4030 N.am   89  LYS89      -0.1963
     15  CA        26.9040   23.9750   16.4370 C.3    89  LYS89       0.1728
     16  C         28.2510   23.8020   15.7500 C.2    89  LYS89       0.2616
     17  O         28.4800   24.4250   14.7200 O.2    89  LYS89      -0.2715
     18  CB        25.8240   23.1620   15.7000 C.3    89  LYS89       0.0311
     19  CG        24.4340   23.1760   16.3430 C.3    89  LYS89       0.0038
     20  CD        23.3690   22.5480   15.4610 C.3    89  LYS89       0.0206
     21  CE        21.9790   22.8280   16.1160 C.3    89  LYS89       0.1093
     22  NZ        20.8590   22.2150   15.3640 N.3    89  LYS89      -0.1314
     23  N         29.1820   23.0500   16.3550 N.am   90  ALA90      -0.1963
     24  CA        30.4490   22.5840   15.6980 C.3    90  ALA90       0.1728
     25  C         30.4010   21.0510   15.7780 C.2    90  ALA90       0.2616
     26  O         29.8260   20.5120   16.7420 O.2    90  ALA90      -0.2715
     27  CB        31.7280   23.1130   16.4250 C.3    90  ALA90       0.0334
     28  N         30.8870   20.3410   14.7610 N.am   91  ASP91      -0.1957
     29  CA        30.8330   18.8770   14.7750 C.3    91  ASP91       0.1840
     30  C         31.8550   18.3110   13.8290 C.2    91  ASP91       0.2622
     31  O         32.2800   19.0000   12.9030 O.2    91  ASP91      -0.2715
     32  CB        29.4440   18.3970   14.3050 C.3    91  ASP91       0.1450
     33  CG        29.0890   17.0050   14.8270 C.2    91  ASP91       0.3671
     34  OD1       29.9210   16.4040   15.5630 O.co2  91  ASP91      -0.2456
     35  OD2       27.9740   16.5110   14.5100 O.co2  91  ASP91      -0.2456
     36  N         32.1840   17.0310   14.0330 N.am   92  THR92      -0.1951
     37  CA        33.1440   16.2710   13.2290 C.3    92  THR92       0.1897
     38  C         32.5060   14.9090   13.0050 C.2    92  THR92       0.2313
     39  O         31.5410   14.5550   13.6790 O.2    92  THR92      -0.2863
     40  CB        34.5290   16.0620   13.9170 C.3    92  THR92       0.1794
     41  OG1       34.3790   15.4320   15.1940 O.3    92  THR92      -0.2208
     42  CG2       35.3100   17.3710   14.0800 C.3    92  THR92       0.0378
     43  N         45.9920   14.5290   10.2970 N.3    99  ARG99      -0.1231
     44  CA        45.9560   15.2490   11.5670 C.3    99  ARG99       0.1694
     45  C         45.7200   16.7450   11.3000 C.2    99  ARG99       0.2592
     46  O         46.4940   17.3870   10.5730 O.2    99  ARG99      -0.2718
     47  CB        47.2760   15.0390   12.3380 C.3    99  ARG99       0.0321
     48  CG        47.3570   15.9000   13.5880 C.3    99  ARG99       0.0489
     49  CD        48.5930   15.6340   14.4390 C.3    99  ARG99       0.2205
     50  NE        48.5520   16.4010   15.6950 N.pl3  99  ARG99      -0.0865
     51  CZ        49.5080   16.3620   16.6280 C.cat  99  ARG99       0.5346
     52  NH1       50.5930   15.5940   16.4650 N.pl3  99  ARG99       0.1354
     53  NH2       49.3790   17.0900   17.7330 N.pl3  99  ARG99       0.1354
     54  N         44.6360   17.2830   11.8660 N.am  100  VAL100     -0.1966
     55  CA        44.3730   18.7300   11.7780 C.3   100  VAL100      0.1727
     56  C         43.9530   19.2080   13.1780 C.2   100  VAL100      0.2617
     57  O         43.5320   18.4140   14.0060 O.2   100  VAL100     -0.2715
     58  CB        43.2650   19.0770   10.6900 C.3   100  VAL100      0.0290
     59  CG1       43.6470   18.5110    9.3010 C.3   100  VAL100      0.0023
     60  CG2       41.9190   18.5710   11.1140 C.3   100  VAL100      0.0023
     61  N         44.0350   20.5080   13.4370 N.am  101  SER101     -0.1936
     62  CA        43.5130   21.0560   14.6880 C.3   101  SER101      0.2055
     63  C         42.1430   21.6240   14.4050 C.2   101  SER101      0.2643
     64  O         42.0500   22.7010   13.8040 O.2   101  SER101     -0.2714
     65  CB        44.4440   22.1670   15.1820 C.3   101  SER101      0.2130
     66  OG        43.8720   22.7940   16.3410 O.3   101  SER101     -0.2179
     67  N         41.1010   20.9130   14.8380 N.am  102  VAL102     -0.1963
     68  CA        39.7090   21.3780   14.7060 C.3   102  VAL102      0.1727
     69  C         39.4660   22.6370   15.5370 C.2   102  VAL102      0.2616
     70  O         38.6500   23.4870   15.1750 O.2   102  VAL102     -0.2715
     71  CB        38.7180   20.2680   15.0460 C.3   102  VAL102      0.0290
     72  CG1       37.2640   20.7480   14.9740 C.3   102  VAL102      0.0023
     73  CG2       38.8970   19.0520   14.0470 C.3   102  VAL102      0.0023
     74  N         40.0940   22.6790   16.7030 N.am  103  ARG103     -0.1977
     75  CA        40.1480   23.8750   17.5650 C.3   103  ARG103      0.1597
     76  C         40.5830   25.1090   16.7610 C.2   103  ARG103      0.2287
     77  O         39.9360   26.1500   16.7610 O.2   103  ARG103     -0.2864
     78  CB        41.2400   23.6180   18.6690 C.3   103  ARG103      0.0334
     79  CG        41.2270   24.6910   19.7920 C.3   103  ARG103      0.0492
     80  CD        42.4560   24.5810   20.6700 C.3   103  ARG103      0.2205
     81  NE        43.6310   24.7910   19.8500 N.pl3 103  ARG103     -0.0865
     82  CZ        44.8800   24.7250   20.2920 C.cat 103  ARG103      0.5346
     83  NH1       45.1100   24.4150   21.5620 N.pl3 103  ARG103      0.1354
     84  NH2       45.8930   24.9250   19.4460 N.pl3 103  ARG103      0.1354
     85  N         28.0250   31.6100   23.0630 N.3   161  LEU161     -0.1231
     86  CA        27.9620   30.1630   22.7570 C.3   161  LEU161      0.1693
     87  C         27.5490   29.4100   24.0700 C.2   161  LEU161      0.2592
     88  O         27.7990   29.8880   25.2090 O.2   161  LEU161     -0.2718
     89  CB        29.2740   29.6740   22.1110 C.3   161  LEU161      0.0284
     90  CG        30.6000   29.6940   22.8030 C.3   161  LEU161      0.0019
     91  CD1       30.7570   28.3670   23.5950 C.3   161  LEU161      0.0001
     92  CD2       31.7870   29.8630   21.8100 C.3   161  LEU161      0.0001
     93  N         26.8840   28.2640   23.8830 N.am  162  PHE162     -0.1962
     94  CA        26.5310   27.3890   24.9510 C.3   162  PHE162      0.1771
     95  C         27.2740   26.0570   24.7350 C.2   162  PHE162      0.2620
     96  O         27.1110   25.3970   23.7150 O.2   162  PHE162     -0.2715
     97  CB        24.9850   27.2080   24.9140 C.3   162  PHE162      0.0574
     98  CG        24.4140   26.6620   26.1960 C.ar  162  PHE162     -0.0200
     99  CD1       23.6280   27.4480   27.0030 C.ar  162  PHE162     -0.0042
    100  CD2       24.6430   25.3260   26.5710 C.ar  162  PHE162     -0.0042
    101  CE1       23.1250   26.9720   28.1820 C.ar  162  PHE162     -0.0003
    102  CE2       24.1180   24.8370   27.7470 C.ar  162  PHE162     -0.0003
    103  CZ        23.3690   25.6660   28.5610 C.ar  162  PHE162     -0.0000
    104  N         28.1830   25.6880   25.6280 N.am  163  THR163     -0.1937
    105  CA        28.8850   24.4440   25.4100 C.3   163  THR163      0.2028
    106  C         28.0760   23.3130   25.9980 C.2   163  THR163      0.2642
    107  O         27.6760   23.3570   27.1540 O.2   163  THR163     -0.2714
    108  CB        30.2930   24.4140   26.0050 C.3   163  THR163      0.1808
    109  OG1       30.2110   24.2480   27.4330 O.3   163  THR163     -0.2208
    110  CG2       31.0360   25.6640   25.6490 C.3   163  THR163      0.0379
    111  N         27.7990   22.3230   25.1590 N.am  164  ARG164     -0.1963
    112  CA        27.1640   21.0970   25.5840 C.3   164  ARG164      0.1714
    113  C         27.5290   19.9610   24.6430 C.2   164  ARG164      0.2458
    114  O         27.2470   20.0620   23.4250 O.2   164  ARG164     -0.2730
    115  CB        25.6500   21.2650   25.6360 C.3   164  ARG164      0.0347
    116  CG        25.0110   20.0170   26.1260 C.3   164  ARG164      0.0492
    117  CD        23.5140   20.1890   26.2130 C.3   164  ARG164      0.2205
    118  NE        23.1850   20.9280   27.4240 N.pl3 164  ARG164     -0.0865
    119  CZ        21.9530   21.3390   27.7450 C.cat 164  ARG164      0.5346
    120  NH1       20.9260   21.1310   26.9240 N.pl3 164  ARG164      0.1354
    121  NH2       21.7640   21.9760   28.8790 N.pl3 164  ARG164      0.1354
    122  N         28.1950   18.8970   25.1720 N.am  165  PRO165     -0.2716
    123  CA        28.6060   17.8090   24.2330 C.3   165  PRO165      0.1536
    124  C         27.4410   16.9480   23.7930 C.2   165  PRO165      0.2598
    125  O         26.4450   16.8030   24.5380 O.2   165  PRO165     -0.2715
    126  CB        29.5870   16.9700   25.0480 C.3   165  PRO165      0.0310
    127  CG        29.1150   17.1240   26.5040 C.3   165  PRO165      0.0237
    128  CD        28.6310   18.6290   26.5540 C.3   165  PRO165      0.0939
    129  N         27.5460   16.3730   22.6010 N.am  166  ALA166     -0.1978
    130  CA        26.5660   15.3320   22.2050 C.3   166  ALA166      0.1597
    131  C         27.2510   14.3820   21.2480 C.2   166  ALA166      0.2287
    132  O         28.3410   14.7000   20.7660 O.2   166  ALA166     -0.2864
    133  CB        25.3130   15.9600   21.5640 C.3   166  ALA166      0.0319
    134  N         26.5070   13.8560   18.3210 N.3   168  GLN168     -0.1231
    135  CA        26.6030   14.6140   17.0570 C.3   168  GLN168      0.1698
    136  C         25.6030   15.7630   17.0920 C.2   168  GLN168      0.2592
    137  O         24.6460   15.7280   17.8790 O.2   168  GLN168     -0.2718
    138  CB        26.3210   13.7000   15.8220 C.3   168  GLN168      0.0381
    139  CG        24.9040   13.1480   15.7500 C.3   168  GLN168      0.0905
    140  CD        23.8850   14.1120   15.1190 C.2   168  GLN168      0.2608
    141  OE1       24.2040   14.9070   14.2130 O.2   168  GLN168     -0.2717
    142  NE2       22.6410   14.0180   15.5740 N.am  168  GLN168     -0.0878
    143  N         25.8370   16.7750   16.2440 N.am  169  TYR169     -0.1976
    144  CA        24.9180   17.9030   15.9920 C.3   169  TYR169      0.1639
    145  C         24.6320   18.0780   14.4650 C.2   169  TYR169      0.2290
    146  O         23.4960   18.3470   14.0820 O.2   169  TYR169     -0.2864
    147  CB        25.4380   19.2270   16.5780 C.3   169  TYR169      0.0560
    148  CG        25.3150   19.3280   18.0800 C.ar  169  TYR169     -0.0198
    149  CD1       26.4040   19.0840   18.9040 C.ar  169  TYR169     -0.0009
    150  CD2       24.0750   19.6370   18.6900 C.ar  169  TYR169     -0.0009
    151  CE1       26.2980   19.1910   20.3230 C.ar  169  TYR169      0.0417
    152  CE2       23.9750   19.7460   20.0900 C.ar  169  TYR169      0.0417
    153  CZ        25.0760   19.4990   20.8850 C.ar  169  TYR169      0.1957
    154  OH        24.9640   19.5850   22.2740 O.3   169  TYR169     -0.2866
    155  N         36.5190    6.2820   14.8680 N.3   179  LYS179     -0.1231
    156  CA        37.5320    7.3480   14.8030 C.3   179  LYS179      0.1693
    157  C         37.0120    8.7050   15.2420 C.2   179  LYS179      0.2592
    158  O         37.7980    9.6260   15.4280 O.2   179  LYS179     -0.2718
    159  CB        38.1670    7.4170   13.4010 C.3   179  LYS179      0.0285
    160  CG        39.3350    6.4090   13.2850 C.3   179  LYS179      0.0035
    161  CD        39.4380    5.7050   11.9480 C.3   179  LYS179      0.0206
    162  CE        40.1220    4.3240   12.1360 C.3   179  LYS179      0.1093
    163  NZ        39.9710    3.4230   10.9280 N.3   179  LYS179     -0.1314
    164  N         35.7000    8.8390   15.4320 N.am  180  LYS180     -0.1966
    165  CA        35.1630   10.1360   15.8910 C.3   180  LYS180      0.1728
    166  C         35.6020   10.3380   17.3300 C.2   180  LYS180      0.2616
    167  O         35.4610    9.4460   18.1680 O.2   180  LYS180     -0.2715
    168  CB        33.6200   10.2640   15.7680 C.3   180  LYS180      0.0311
    169  CG        33.1140   11.7040   16.1750 C.3   180  LYS180      0.0038
    170  CD        31.6110   11.9600   15.9040 C.3   180  LYS180      0.0206
    171  CE        31.2720   13.3250   16.4780 C.3   180  LYS180      0.1093
    172  NZ        29.9630   13.7210   15.9590 N.3   180  LYS180     -0.1314
    173  N         36.1600   11.5130   17.5970 N.am  181  HIS181     -0.1959
    174  CA        36.6480   11.8770   18.9190 C.3   181  HIS181      0.1787
    175  C         35.6820   12.8240   19.6210 C.2   181  HIS181      0.2620
    176  O         35.5720   14.0040   19.2640 O.2   181  HIS181     -0.2715
    177  CB        38.0350   12.5040   18.7930 C.3   181  HIS181      0.0785
    178  CG        38.6340   12.9170   20.0980 C.ar  181  HIS181      0.0821
    179  ND1       38.9810   12.0120   21.0750 N.ar  181  HIS181     -0.2267
    180  CD2       38.9760   14.1390   20.5730 C.ar  181  HIS181      0.1154
    181  CE1       39.4910   12.6620   22.1120 C.ar  181  HIS181      0.1986
    182  NE2       39.4900   13.9540   21.8330 N.ar  181  HIS181     -0.2212
    183  N         34.9340   12.3140   20.5870 N.am  182  ILE182     -0.1963
    184  CA        33.9330   13.1280   21.2870 C.3   182  ILE182      0.1727
    185  C         34.5470   13.6440   22.6370 C.2   182  ILE182      0.2616
    186  O         34.8690   12.8630   23.5390 O.2   182  ILE182     -0.2715
    187  CB        32.6230   12.3370   21.4700 C.3   182  ILE182      0.0290
    188  CG1       32.0680   11.9440   20.1020 C.3   182  ILE182      0.0022
    189  CG2       31.5340   13.1170   22.2750 C.3   182  ILE182      0.0023
    190  CD1       31.5900   10.5970   20.0620 C.3   182  ILE182      0.0001
    191  N         34.7030   14.9700   22.7540 N.am  183  LEU183     -0.1977
    192  CA        35.0640   15.5880   24.0270 C.3   183  LEU183      0.1596
    193  C         33.9320   15.4460   25.0340 C.2   183  LEU183      0.2287
    194  O         32.7440   15.6130   24.6660 O.2   183  LEU183     -0.2864
    195  CB        35.3770   17.1060   23.8030 C.3   183  LEU183      0.0297
    196  CG        36.5920   17.4270   22.8880 C.3   183  LEU183      0.0022
    197  CD1       36.8660   18.9580   22.9530 C.3   183  LEU183      0.0001
    198  CD2       37.8890   16.6660   23.1990 C.3   183  LEU183      0.0001
    199  N         35.2520   19.9510   26.5850 N.3   188  LEU188     -0.1245
    200  CA        34.6280   20.7940   25.5790 C.3   188  LEU188      0.1561
    201  C         34.5520   22.2360   26.0680 C.2   188  LEU188      0.2260
    202  O         34.7870   23.1720   25.2950 O.2   188  LEU188     -0.2867
    203  CB        33.1990   20.3320   25.2820 C.3   188  LEU188      0.0270
    204  CG        32.5260   21.1070   24.1320 C.3   188  LEU188      0.0019
    205  CD1       33.2060   20.9110   22.7900 C.3   188  LEU188      0.0001
    206  CD2       31.0440   20.6990   24.0340 C.3   188  LEU188      0.0001
    207  N         38.0000   23.4750   25.6450 N.3   190  TRP190     -0.1227
    208  CA        38.2850   23.5970   24.2180 C.3   190  TRP190      0.1737
    209  C         37.7360   24.9350   23.7060 C.2   190  TRP190      0.2595
    210  O         38.4550   25.6940   23.0990 O.2   190  TRP190     -0.2718
    211  CB        37.5920   22.4180   23.5210 C.3   190  TRP190      0.0564
    212  CG        37.9320   22.1990   22.0890 C.ar  190  TRP190      0.0003
    213  CD1       39.0060   21.5290   21.5900 C.ar  190  TRP190      0.0946
    214  CD2       37.1070   22.5420   20.9710 C.ar  190  TRP190      0.0152
    215  NE1       38.9230   21.4490   20.2160 N.ar  190  TRP190     -0.2442
    216  CE2       37.7800   22.0890   19.8040 C.ar  190  TRP190      0.0810
    217  CE3       35.8770   23.2150   20.8370 C.ar  190  TRP190      0.0012
    218  CZ2       37.2790   22.3110   18.5330 C.ar  190  TRP190      0.0191
    219  CZ3       35.3740   23.4450   19.5690 C.ar  190  TRP190      0.0001
    220  CH2       36.0410   22.9680   18.4310 C.ar  190  TRP190      0.0015
    221  N         36.4670   25.2270   23.9590 N.am  191  TRP191     -0.1976
    222  CA        35.9060   26.5300   23.6280 C.3   191  TRP191      0.1640
    223  C         36.5840   27.6700   24.4310 C.2   191  TRP191      0.2290
    224  O         36.7320   28.7790   23.9170 O.2   191  TRP191     -0.2864
    225  CB        34.4080   26.5470   23.8970 C.3   191  TRP191      0.0576
    226  CG        33.6280   25.8880   22.8220 C.ar  191  TRP191      0.0006
    227  CD1       32.9650   24.7090   22.9060 C.ar  191  TRP191      0.0946
    228  CD2       33.5270   26.3070   21.4490 C.ar  191  TRP191      0.0152
    229  NE1       32.3960   24.3820   21.6920 N.ar  191  TRP191     -0.2442
    230  CE2       32.7020   25.3480   20.7830 C.ar  191  TRP191      0.0810
    231  CE3       33.9850   27.4390   20.7340 C.ar  191  TRP191      0.0012
    232  CZ2       32.3510   25.4510   19.4210 C.ar  191  TRP191      0.0191
    233  CZ3       33.6110   27.5470   19.3540 C.ar  191  TRP191      0.0001
    234  CH2       32.8070   26.5530   18.7350 C.ar  191  TRP191      0.0015
@<TRIPOS>BOND
     1    59    58    1
     2    43    44    1
     3    46    45    2
     4    58    60    1
     5    58    55    1
     6   163   162    1
     7    45    44    1
     8    45    54   am
     9    44    47    1
    10    55    54    1
    11    55    56    1
    12   161   162    1
    13   161   160    1
    14    47    48    1
    15    31    30    2
    16    38    37    1
    17    38    39    2
    18    56    61   am
    19    56    57    2
    20    37    40    1
    21    37    36    1
    22   160   159    1
    23   159   156    1
    24    61    62    1
    25    48    49    1
    26    64    63    2
    27    30    36   am
    28    30    29    1
    29    40    42    1
    30    40    41    1
    31    73    71    1
    32   146   145    2
    33   141   140    2
    34    32    29    1
    35    32    33    1
    36    63    62    1
    37    63    67   am
    38    49    50    1
    39   145   144    1
    40    35    33   ar
    41    62    65    1
    42    68    67    1
    43    68    71    1
    44    68    69    1
    45    17    16    2
    46    28    29    1
    47    28    25   am
    48   156   155    1
    49   156   157    1
    50    33    34   ar
    51    72    71    1
    52   140   142   am
    53   140   139    1
    54    70    69    2
    55    65    66    1
    56   157   158    2
    57   157   164   am
    58    22    21    1
    59   164   165    1
    60    20    21    1
    61    20    19    1
    62    69    74   am
    63    50    51    2
    64    24    25    1
    65    24    23    1
    66    24    27    1
    67    18    19    1
    68    18    15    1
    69    16    23   am
    70    16    15    1
    71   139   138    1
    72   168   165    1
    73   168   169    1
    74    25    26    2
    75   138   135    1
    76   165   166    1
    77   170   169    1
    78   170   171    1
    79   172   171    1
    80   144   143    1
    81   144   147    1
    82    12    13    1
    83    12     9    1
    84   143   136   am
    85    14    15    1
    86    14    10   am
    87    52    51    1
    88   147   148    1
    89    51    53    1
    90    74    75    1
    91    76    77    2
    92    76    75    1
    93     8     9    1
    94     8     3   am
    95   135   136    1
    96   135   134    1
    97   136   137    2
    98     9    10    1
    99     6     5    1
   100   166   173   am
   101   166   167    2
   102    10    11    2
   103    75    78    1
   104   173   174    1
   105     2     3    1
   106     2     5    1
   107     2     1    1
   108     7     5    1
   109     3     4    2
   110   148   150   ar
   111   148   149   ar
   112   220   218   ar
   113   220   219   ar
   114   218   216   ar
   115    78    79    1
   116   150   152   ar
   117   234   233   ar
   118   234   232   ar
   119   177   174    1
   120   177   178    1
   121   149   151   ar
   122   174   175    1
   123   176   175    2
   124   233   231   ar
   125   232   230   ar
   126    84    82    1
   127   219   217   ar
   128   175   183   am
   129    79    80    1
   130   216   215   ar
   131   216   214   ar
   132    81    82    2
   133    81    80    1
   134   190   188    1
   135   152   153   ar
   136   178   180   ar
   137   178   179   ar
   138   188   187    1
   139   215   213   ar
   140    82    83    1
   141   151   153   ar
   142   180   182   ar
   143   183   184    1
   144   231   228   ar
   145   132   131    2
   146   230   228   ar
   147   230   229   ar
   148   217   214   ar
   149   153   154    1
   150   214   212   ar
   151   179   181   ar
   152   131   130    1
   153   184   187    1
   154   184   185    1
   155   228   226   ar
   156   187   189    1
   157   133   130    1
   158   213   212   ar
   159   229   227   ar
   160    92    90    1
   161   182   181   ar
   162   212   211    1
   163    89    86    1
   164    89    90    1
   165   130   129    1
   166   129   124   am
   167   185   191   am
   168   185   186    2
   169   191   192    1
   170    86    85    1
   171    86    87    1
   172   205   204    1
   173    90    91    1
   174   226   227   ar
   175   226   225    1
   176   196   197    1
   177   196   198    1
   178   196   195    1
   179   210   209    2
   180   114   113    2
   181   211   208    1
   182   222   225    1
   183   222   221    1
   184   222   223    1
   185   209   221   am
   186   209   208    1
   187    96    95    2
   188   124   123    1
   189   124   125    2
   190   195   192    1
   191    93    87   am
   192    93    94    1
   193   224   223    2
   194   192   193    1
   195   206   204    1
   196    87    88    2
   197   204   203    1
   198   208   207    1
   199   123   126    1
   200   123   122    1
   201   113   122   am
   202   113   112    1
   203   194   193    2
   204    95    94    1
   205    95   104   am
   206    97    94    1
   207    97    98    1
   208   126   127    1
   209   111   112    1
   210   111   106   am
   211   122   128    1
   212   203   200    1
   213   202   201    2
   214   105   104    1
   215   105   106    1
   216   105   108    1
   217   200   201    1
   218   200   199    1
   219   112   115    1
   220   115   116    1
   221   110   108    1
   222   106   107    2
   223   108   109    1
   224   116   117    1
   225    98   100   ar
   226    98    99   ar
   227   117   118    1
   228   127   128    1
   229   100   102   ar
   230   120   119    1
   231    99   101   ar
   232   118   119    2
   233   119   121    1
   234   102   103   ar
   235   101   103   ar
