@<TRIPOS>MOLECULE
tmp/2zfoC00.pdb
 200 190 0 0 0
SMALL
GASTEIGER

@<TRIPOS>ATOM
      1  N          9.4020   45.6140   25.7030 N.3    39  LEU39      -0.1245
      2  CA         8.3340   46.1900   26.5030 C.3    39  LEU39       0.1561
      3  C          8.7430   47.5440   27.0630 C.2    39  LEU39       0.2260
      4  O          7.9980   48.5290   26.9580 O.2    39  LEU39      -0.2867
      5  CB         7.9960   45.2610   27.6670 C.3    39  LEU39       0.0270
      6  CG         6.9400   45.7690   28.6550 C.3    39  LEU39       0.0019
      7  CD1        5.5900   45.8140   27.9650 C.3    39  LEU39       0.0001
      8  CD2        6.8690   44.8500   29.8780 C.3    39  LEU39       0.0001
      9  N          6.3680   51.5900   31.9070 N.3    46  ALA46      -0.1245
     10  CA         6.2030   50.1900   32.2790 C.3    46  ALA46       0.1562
     11  C          7.2460   49.6650   33.2760 C.2    46  ALA46       0.2260
     12  O          6.9130   48.9520   34.2270 O.2    46  ALA46      -0.2867
     13  CB         6.2040   49.3240   31.0160 C.3    46  ALA46       0.0290
     14  N          6.7160   49.4550   37.1740 N.3    49  LEU49      -0.1231
     15  CA         5.9540   48.3710   37.7910 C.3    49  LEU49       0.1693
     16  C          6.8420   47.1970   38.1890 C.2    49  LEU49       0.2592
     17  O          6.4210   46.3250   38.9510 O.2    49  LEU49      -0.2718
     18  CB         4.8850   47.8550   36.8240 C.3    49  LEU49       0.0284
     19  CG         3.8010   48.8090   36.3210 C.3    49  LEU49       0.0019
     20  CD1        3.0520   48.1740   35.1450 C.3    49  LEU49       0.0001
     21  CD2        2.8520   49.1370   37.4690 C.3    49  LEU49       0.0001
     22  N          8.0640   47.1650   37.6680 N.am   50  PHE50      -0.1976
     23  CA         8.9720   46.0630   37.9640 C.3    50  PHE50       0.1639
     24  C         10.1610   46.4840   38.8080 C.2    50  PHE50       0.2290
     25  O         11.3070   46.1080   38.5370 O.2    50  PHE50      -0.2864
     26  CB         9.4490   45.4150   36.6620 C.3    50  PHE50       0.0560
     27  CG         8.3300   44.9030   35.8140 C.ar   50  PHE50      -0.0200
     28  CD1        7.7170   45.7280   34.8830 C.ar   50  PHE50      -0.0042
     29  CD2        7.8490   43.6110   35.9860 C.ar   50  PHE50      -0.0042
     30  CE1        6.6310   45.2750   34.1350 C.ar   50  PHE50      -0.0003
     31  CE2        6.7650   43.1480   35.2470 C.ar   50  PHE50      -0.0003
     32  CZ         6.1540   43.9820   34.3190 C.ar   50  PHE50      -0.0000
     33  N         10.4270   45.7090   41.9780 N.3    52  GLY52      -0.1210
     34  CA        10.7420   44.6230   42.8810 C.3    52  GLY52       0.1956
     35  C         11.6060   43.5220   42.3020 C.2    52  GLY52       0.2611
     36  O         11.9150   42.5590   43.0000 O.2    52  GLY52      -0.2717
     37  N         12.0160   43.6620   41.0440 N.am   53  VAL53      -0.1979
     38  CA        12.8390   42.6310   40.4170 C.3    53  VAL53       0.1595
     39  C         14.1490   43.1230   39.7990 C.2    53  VAL53       0.2287
     40  O         14.7190   42.4660   38.9320 O.2    53  VAL53      -0.2864
     41  CB        12.0280   41.8560   39.3520 C.3    53  VAL53       0.0276
     42  CG1       10.9780   40.9790   40.0350 C.3    53  VAL53       0.0022
     43  CG2       11.3620   42.8290   38.3960 C.3    53  VAL53       0.0022
     44  N         13.0290   36.8300   36.9630 N.3    66  HIS66      -0.1241
     45  CA        11.7250   37.4600   36.8020 C.3    66  HIS66       0.1621
     46  C         11.2440   37.2480   35.3500 C.2    66  HIS66       0.2264
     47  O         10.1200   36.7940   35.1070 O.2    66  HIS66      -0.2867
     48  CB        11.8080   38.9700   37.0830 C.3    66  HIS66       0.0745
     49  CG        10.6280   39.7260   36.5610 C.ar   66  HIS66       0.0817
     50  ND1        9.3850   39.6510   37.1510 N.ar   66  HIS66      -0.2268
     51  CD2       10.4620   40.4490   35.4270 C.ar   66  HIS66       0.1154
     52  CE1        8.5020   40.2870   36.4020 C.ar   66  HIS66       0.1986
     53  NE2        9.1290   40.7790   35.3470 N.ar   66  HIS66      -0.2212
     54  N         10.3040   33.6290   34.7640 N.3    69  ARG69      -0.1231
     55  CA         9.1080   33.2660   35.5220 C.3    69  ARG69       0.1694
     56  C          7.8530   33.7570   34.7740 C.2    69  ARG69       0.2591
     57  O          6.8700   33.0110   34.5690 O.2    69  ARG69      -0.2718
     58  CB         9.2210   33.9370   36.9020 C.3    69  ARG69       0.0321
     59  CG         8.1970   33.6180   37.9490 C.3    69  ARG69       0.0489
     60  CD         8.4820   34.4780   39.2140 C.3    69  ARG69       0.2205
     61  NE         9.8170   34.2240   39.7530 N.pl3  69  ARG69      -0.0865
     62  CZ        10.7200   35.1610   40.0410 C.cat  69  ARG69       0.5346
     63  NH1       10.4570   36.4540   39.8510 N.pl3  69  ARG69       0.1354
     64  NH2       11.9040   34.7990   40.5220 N.pl3  69  ARG69       0.1354
     65  N          7.8800   35.0210   34.3710 N.am   70  VAL70      -0.1980
     66  CA         6.7410   35.5960   33.6500 C.3    70  VAL70       0.1595
     67  C          6.4800   34.8580   32.3520 C.2    70  VAL70       0.2287
     68  O          5.3510   34.4540   32.0610 O.2    70  VAL70      -0.2864
     69  CB         6.9780   37.0980   33.3170 C.3    70  VAL70       0.0276
     70  CG1        5.9360   37.5880   32.2780 C.3    70  VAL70       0.0022
     71  CG2        6.8960   37.9150   34.5820 C.3    70  VAL70       0.0022
     72  N          5.1170   31.5350   32.5160 N.3    73  GLY73      -0.1210
     73  CA         3.6860   31.6410   32.8090 C.3    73  GLY73       0.1956
     74  C          2.9250   31.5730   31.4830 C.2    73  GLY73       0.2611
     75  O          1.8460   30.9840   31.3950 O.2    73  GLY73      -0.2717
     76  N          3.4640   32.2050   30.4490 N.am   74  LEU74      -0.1979
     77  CA         2.8100   32.1470   29.1490 C.3    74  LEU74       0.1596
     78  C          2.9530   30.7060   28.6330 C.2    74  LEU74       0.2287
     79  O          2.0080   30.1540   28.0630 O.2    74  LEU74      -0.2864
     80  CB         3.4560   33.1200   28.1630 C.3    74  LEU74       0.0297
     81  CG         2.8860   33.0820   26.7420 C.3    74  LEU74       0.0022
     82  CD1        1.4260   33.5650   26.7210 C.3    74  LEU74       0.0001
     83  CD2        3.7660   33.9400   25.8420 C.3    74  LEU74       0.0001
     84  N         -4.3510   33.8390   37.1600 N.3    94  LEU94      -0.1245
     85  CA        -3.4230   34.8770   36.7520 C.3    94  LEU94       0.1561
     86  C         -4.0480   36.2630   36.8620 C.2    94  LEU94       0.2260
     87  O         -3.3740   37.2380   37.2290 O.2    94  LEU94      -0.2867
     88  CB        -2.9480   34.6360   35.3210 C.3    94  LEU94       0.0270
     89  CG        -2.0050   33.4530   35.1200 C.3    94  LEU94       0.0019
     90  CD1       -1.6360   33.3260   33.6470 C.3    94  LEU94       0.0001
     91  CD2       -0.7510   33.6440   35.9680 C.3    94  LEU94       0.0001
     92  N         -3.9590   37.5190   40.3850 N.3    97  GLN97      -0.1231
     93  CA        -2.6020   37.8750   40.7840 C.3    97  GLN97       0.1698
     94  C         -2.2570   39.2710   40.2650 C.2    97  GLN97       0.2592
     95  O         -1.6540   40.0680   40.9820 O.2    97  GLN97      -0.2718
     96  CB        -1.5810   36.8540   40.2520 C.3    97  GLN97       0.0381
     97  CG        -1.6960   35.4630   40.8780 C.3    97  GLN97       0.0905
     98  CD        -0.6410   34.4890   40.3700 C.2    97  GLN97       0.2608
     99  OE1       -0.3750   34.4180   39.1740 O.2    97  GLN97      -0.2717
    100  NE2       -0.0480   33.7240   41.2790 N.am   97  GLN97      -0.0878
    101  N         -2.6400   39.5710   39.0250 N.am   98  HIS98      -0.1976
    102  CA        -2.3440   40.8850   38.4570 C.3    98  HIS98       0.1656
    103  C         -3.2410   41.9930   39.0000 C.2    98  HIS98       0.2291
    104  O         -2.8110   43.1500   39.1120 O.2    98  HIS98      -0.2864
    105  CB        -2.4220   40.8450   36.9300 C.3    98  HIS98       0.0771
    106  CG        -1.2910   40.0950   36.3010 C.ar   98  HIS98       0.0820
    107  ND1       -1.2760   38.7210   36.2040 N.ar   98  HIS98      -0.2267
    108  CD2       -0.1010   40.5200   35.8140 C.ar   98  HIS98       0.1154
    109  CE1       -0.1250   38.3300   35.6870 C.ar   98  HIS98       0.1986
    110  NE2        0.6070   39.4020   35.4420 N.ar   98  HIS98      -0.2212
    111  N         -1.7230   43.7680   41.7790 N.3   101  ARG101     -0.1245
    112  CA        -0.4840   44.5170   41.5730 C.3   101  ARG101      0.1563
    113  C         -0.7810   45.9330   41.1120 C.2   101  ARG101      0.2260
    114  O         -1.1090   46.1660   39.9470 O.2   101  ARG101     -0.2867
    115  CB         0.4080   43.8130   40.5540 C.3   101  ARG101      0.0307
    116  CG         0.9890   42.5320   41.0990 C.3   101  ARG101      0.0489
    117  CD         1.7650   41.7610   40.0620 C.3   101  ARG101      0.2205
    118  NE         2.1250   40.4480   40.5830 N.pl3 101  ARG101     -0.0865
    119  CZ         1.8320   39.2990   39.9820 C.cat 101  ARG101      0.5346
    120  NH1        2.1940   38.1460   40.5350 N.pl3 101  ARG101      0.1354
    121  NH2        1.1860   39.3030   38.8220 N.pl3 101  ARG101      0.1354
    122  N         -0.8750   47.7690   37.2420 N.3   104  VAL104     -0.1245
    123  CA        -1.0150   46.9120   36.0690 C.3   104  VAL104      0.1561
    124  C         -2.3660   47.1910   35.4120 C.2   104  VAL104      0.2260
    125  O         -3.4180   47.0340   36.0330 O.2   104  VAL104     -0.2867
    126  CB        -0.9210   45.4140   36.4420 C.3   104  VAL104      0.0252
    127  CG1       -0.8780   44.5710   35.1790 C.3   104  VAL104      0.0019
    128  CG2        0.3150   45.1650   37.2900 C.3   104  VAL104      0.0019
    129  N         -1.4670   47.5520   29.2300 N.3   108  HIS108     -0.1226
    130  CA        -0.1160   46.9990   29.3440 C.3   108  HIS108      0.1752
    131  C          0.0140   45.6610   28.6080 C.2   108  HIS108      0.2596
    132  O          1.0790   45.3370   28.0840 O.2   108  HIS108     -0.2718
    133  CB         0.2620   46.8230   30.8190 C.3   108  HIS108      0.0759
    134  CG         0.6090   48.1100   31.5060 C.ar  108  HIS108      0.0818
    135  ND1        0.1420   48.4350   32.7600 N.ar  108  HIS108     -0.2268
    136  CD2        1.3850   49.1460   31.1100 C.ar  108  HIS108      0.1154
    137  CE1        0.6150   49.6210   33.1090 C.ar  108  HIS108      0.1986
    138  NE2        1.3720   50.0720   32.1260 N.ar  108  HIS108     -0.2212
    139  N         -1.0640   44.8830   28.5830 N.am  109  PHE109     -0.1976
    140  CA        -1.0360   43.6050   27.8890 C.3   109  PHE109      0.1639
    141  C         -0.9250   43.8140   26.3880 C.2   109  PHE109      0.2290
    142  O         -0.3520   42.9900   25.6800 O.2   109  PHE109     -0.2864
    143  CB        -2.2590   42.7660   28.2660 C.3   109  PHE109      0.0560
    144  CG        -2.1580   42.1820   29.6430 C.ar  109  PHE109     -0.0200
    145  CD1       -2.4050   42.9710   30.7700 C.ar  109  PHE109     -0.0042
    146  CD2       -1.7030   40.8800   29.8220 C.ar  109  PHE109     -0.0042
    147  CE1       -2.1930   42.4660   32.0610 C.ar  109  PHE109     -0.0003
    148  CE2       -1.4880   40.3650   31.1010 C.ar  109  PHE109     -0.0003
    149  CZ        -1.7310   41.1580   32.2240 C.ar  109  PHE109     -0.0000
    150  N          2.6350   44.3440   25.8750 N.3   112  MET112     -0.1245
    151  CA         3.3010   43.0540   26.0920 C.3   112  MET112      0.1570
    152  C          3.0780   42.2350   24.8210 C.2   112  MET112      0.2261
    153  O          3.9840   41.5700   24.3290 O.2   112  MET112     -0.2867
    154  CB         2.6900   42.3310   27.2870 C.3   112  MET112      0.0387
    155  CG         3.3970   41.0190   27.6040 C.3   112  MET112      0.0595
    156  SD         5.1090   41.2560   28.0930 S.3   112  MET112     -0.1393
    157  CE         4.9100   41.0370   29.9280 C.3   112  MET112      0.0692
    158  N          5.9810   40.5670   22.4300 N.3   116  PHE116     -0.1241
    159  CA         6.0900   39.2020   21.9310 C.3   116  PHE116      0.1605
    160  C          5.9980   39.1690   20.4100 C.2   116  PHE116      0.2264
    161  O          6.6910   38.3860   19.7530 O.2   116  PHE116     -0.2867
    162  CB         5.0050   38.3240   22.5380 C.3   116  PHE116      0.0534
    163  CG         5.3740   37.7490   23.8620 C.ar  116  PHE116     -0.0203
    164  CD1        4.8940   38.3010   25.0340 C.ar  116  PHE116     -0.0042
    165  CD2        6.1820   36.6140   23.9330 C.ar  116  PHE116     -0.0042
    166  CE1        5.2130   37.7410   26.2740 C.ar  116  PHE116     -0.0003
    167  CE2        6.5050   36.0490   25.1610 C.ar  116  PHE116     -0.0003
    168  CZ         6.0160   36.6100   26.3310 C.ar  116  PHE116     -0.0000
    169  N         -2.5350   34.5180   21.4230 N.3   136  PHE136     -0.1241
    170  CA        -2.0030   35.2980   22.5300 C.3   136  PHE136      0.1605
    171  C         -3.1520   36.1240   23.1140 C.2   136  PHE136      0.2264
    172  O         -3.3260   36.2000   24.3260 O.2   136  PHE136     -0.2867
    173  CB        -0.8570   36.2040   22.0620 C.3   136  PHE136      0.0534
    174  CG        -0.1880   36.9570   23.1820 C.ar  136  PHE136     -0.0203
    175  CD1       -0.7010   38.1740   23.6310 C.ar  136  PHE136     -0.0042
    176  CD2        0.9230   36.4210   23.8300 C.ar  136  PHE136     -0.0042
    177  CE1       -0.1150   38.8400   24.7130 C.ar  136  PHE136     -0.0003
    178  CE2        1.5120   37.0880   24.9170 C.ar  136  PHE136     -0.0003
    179  CZ         0.9840   38.2980   25.3540 C.ar  136  PHE136     -0.0000
    180  N         -5.4370   34.3300   25.3870 N.3   139  ILE139     -0.1231
    181  CA        -4.8520   34.1570   26.7070 C.3   139  ILE139      0.1692
    182  C         -4.8070   35.4880   27.4580 C.2   139  ILE139      0.2591
    183  O         -5.3540   35.6160   28.5590 O.2   139  ILE139     -0.2718
    184  CB        -3.4140   33.5620   26.5810 C.3   139  ILE139      0.0266
    185  CG1       -3.5040   32.0990   26.1280 C.3   139  ILE139      0.0019
    186  CG2       -2.6660   33.6580   27.9360 C.3   139  ILE139      0.0020
    187  CD1       -2.1850   31.5210   25.6040 C.3   139  ILE139      0.0001
    188  N         -4.1510   36.4770   26.8620 N.am  140  ALA140     -0.1980
    189  CA        -4.0220   37.8020   27.4800 C.3   140  ALA140      0.1597
    190  C         -5.3560   38.3930   27.9060 C.2   140  ALA140      0.2287
    191  O         -5.4610   38.9730   28.9870 O.2   140  ALA140     -0.2864
    192  CB        -3.3080   38.7580   26.5320 C.3   140  ALA140      0.0319
    193  N         -6.4130   37.1130   31.1960 N.3   143  ILE143     -0.1245
    194  CA        -5.6500   37.6470   32.3300 C.3   143  ILE143      0.1561
    195  C         -6.0230   39.0940   32.6460 C.2   143  ILE143      0.2260
    196  O         -6.2660   39.4330   33.8050 O.2   143  ILE143     -0.2867
    197  CB        -4.1220   37.6220   32.0550 C.3   143  ILE143      0.0252
    198  CG1       -3.6760   36.2060   31.7040 C.3   143  ILE143      0.0019
    199  CG2       -3.3510   38.1510   33.2770 C.3   143  ILE143      0.0019
    200  CD1       -2.2640   36.1200   31.1650 C.3   143  ILE143      0.0001
@<TRIPOS>BOND
     1   161   160    2
     2   160   159    1
     3   169   170    1
     4   159   158    1
     5   159   162    1
     6   173   170    1
     7   173   174    1
     8   170   171    1
     9   162   163    1
    10   171   172    2
    11   174   175   ar
    12   174   176   ar
    13   175   177   ar
    14   176   178   ar
    15   163   165   ar
    16   163   164   ar
    17   165   167   ar
    18   153   152    2
    19   177   179   ar
    20   152   151    1
    21   178   179   ar
    22   164   166   ar
    23   167   168   ar
    24   180   181    1
    25   187   185    1
    26   142   141    2
    27     1     2    1
    28    83    81    1
    29   150   151    1
    30   151   154    1
    31   185   184    1
    32   166   168   ar
    33   141   140    1
    34     2     3    1
    35     2     5    1
    36   192   189    1
    37   184   181    1
    38   184   186    1
    39   181   182    1
    40    82    81    1
    41    81    80    1
    42   188   182   am
    43   188   189    1
    44     4     3    2
    45   154   155    1
    46   182   183    2
    47   189   190    1
    48   155   156    1
    49     5     6    1
    50   140   143    1
    51   140   139    1
    52   190   191    2
    53     7     6    1
    54    79    78    2
    55   132   131    2
    56   156   157    1
    57    80    77    1
    58   143   144    1
    59   139   131   am
    60   131   130    1
    61    78    77    1
    62     6     8    1
    63    77    76    1
    64   129   130    1
    65   130   133    1
    66   144   146   ar
    67   144   145   ar
    68   146   148   ar
    69    76    74   am
    70   145   147   ar
    71   133   134    1
    72    13    10    1
    73   148   149   ar
    74   136   134   ar
    75   136   138   ar
    76   200   198    1
    77   193   194    1
    78    75    74    2
    79    74    73    1
    80   134   135   ar
    81   198   197    1
    82     9    10    1
    83   197   194    1
    84   197   199    1
    85   147   149   ar
    86    68    67    2
    87   138   137   ar
    88    70    69    1
    89    10    11    1
    90   194   195    1
    91    67    66    1
    92    72    73    1
    93   195   196    2
    94   135   137   ar
    95    11    12    2
    96    69    66    1
    97    69    71    1
    98    90    89    1
    99    66    65    1
   100    30    32   ar
   101    30    28   ar
   102    32    31   ar
   103    65    56   am
   104    57    56    2
   105    54    55    1
   106    56    55    1
   107    28    27   ar
   108    47    46    2
   109    89    88    1
   110    89    91    1
   111    20    19    1
   112   127   126    1
   113    31    29   ar
   114    88    85    1
   115    53    51   ar
   116    53    52   ar
   117    46    45    1
   118   124   125    2
   119   124   123    1
   120    51    49   ar
   121   110   109   ar
   122   110   108   ar
   123    55    58    1
   124   109   107   ar
   125   108   106   ar
   126    27    29   ar
   127    27    26    1
   128   123   126    1
   129   123   122    1
   130   107   106   ar
   131   106   105    1
   132    19    18    1
   133    19    21    1
   134    52    50   ar
   135   126   128    1
   136    49    48    1
   137    49    50   ar
   138    26    23    1
   139    85    86    1
   140    85    84    1
   141    45    44    1
   142    45    48    1
   143    18    15    1
   144    86    87    2
   145    58    59    1
   146   105   102    1
   147    14    15    1
   148    22    23    1
   149    22    16   am
   150    15    16    1
   151    59    60    1
   152    23    24    1
   153    16    17    2
   154    43    41    1
   155   102   103    1
   156   102   101    1
   157    25    24    2
   158   121   119    1
   159    40    39    2
   160   103   104    2
   161   101    94   am
   162    99    98    2
   163    60    61    1
   164    41    42    1
   165    41    38    1
   166    61    62    2
   167    39    38    1
   168    63    62    1
   169   114   113    2
   170   119   120    1
   171   119   118    2
   172    62    64    1
   173   117   118    1
   174   117   116    1
   175    96    93    1
   176    96    97    1
   177    94    93    1
   178    94    95    2
   179    98    97    1
   180    98   100   am
   181    92    93    1
   182    38    37    1
   183   115   116    1
   184   115   112    1
   185    37    35   am
   186   113   112    1
   187   112   111    1
   188    33    34    1
   189    35    34    1
   190    35    36    2
