@<TRIPOS>MOLECULE
tmp/2zfqB01.pdb
 215 216 0 0 0
SMALL
GASTEIGER

@<TRIPOS>ATOM
      1  N         22.3890   -5.9290   18.2240 N.3    43  HIS43      -0.1241
      2  CA        22.2380   -7.3070   17.7620 C.3    43  HIS43       0.1621
      3  C         21.5490   -7.3240   16.3960 C.2    43  HIS43       0.2264
      4  O         21.6520   -8.3360   15.7150 O.2    43  HIS43      -0.2867
      5  CB        21.5030   -8.2110   18.7500 C.3    43  HIS43       0.0745
      6  CG        20.0170   -8.1260   18.7990 C.ar   43  HIS43       0.0817
      7  ND1       19.3430   -7.3650   19.7330 N.ar   43  HIS43      -0.2268
      8  CD2       19.0510   -8.7140   18.0410 C.ar   43  HIS43       0.1154
      9  CE1       18.0390   -7.4710   19.5480 C.ar   43  HIS43       0.1986
     10  NE2       17.8370   -8.2870   18.5200 N.ar   43  HIS43      -0.2212
     11  N         25.8580   -9.9900   15.2660 N.3    47  TYR47      -0.1241
     12  CA        25.6130  -11.0680   16.2110 C.3    47  TYR47       0.1605
     13  C         26.2640  -12.3550   15.6800 C.2    47  TYR47       0.2264
     14  O         25.6630  -13.2500   15.0920 O.2    47  TYR47      -0.2867
     15  CB        24.1410  -11.2890   16.5120 C.3    47  TYR47       0.0534
     16  CG        23.9030  -12.2250   17.6520 C.ar   47  TYR47      -0.0201
     17  CD1       24.2520  -11.8460   18.9440 C.ar   47  TYR47      -0.0009
     18  CD2       23.3450  -13.4800   17.4660 C.ar   47  TYR47      -0.0009
     19  CE1       24.0400  -12.6990   20.0060 C.ar   47  TYR47       0.0417
     20  CE2       23.1360  -14.3350   18.5330 C.ar   47  TYR47       0.0417
     21  CZ        23.4920  -13.9370   19.8050 C.ar   47  TYR47       0.1957
     22  OH        23.2880  -14.7770   20.8730 O.3    47  TYR47      -0.2866
     23  N         25.2080  -16.0450   15.1000 N.3    50  TRP50      -0.1241
     24  CA        24.2510  -16.3540   14.0380 C.3    50  TRP50       0.1605
     25  C         24.7860  -15.9400   12.6750 C.2    50  TRP50       0.2264
     26  O         24.0380  -15.8440   11.7080 O.2    50  TRP50      -0.2867
     27  CB        22.9040  -15.6730   14.3140 C.3    50  TRP50       0.0550
     28  CG        22.1620  -16.2910   15.4610 C.ar   50  TRP50       0.0003
     29  CD1       22.5340  -17.3640   16.2130 C.ar   50  TRP50       0.0946
     30  CD2       20.9000  -15.8580   15.9880 C.ar   50  TRP50       0.0152
     31  NE1       21.5830  -17.6280   17.1790 N.ar   50  TRP50      -0.2442
     32  CE2       20.5710  -16.7130   17.0560 C.ar   50  TRP50       0.0810
     33  CE3       20.0290  -14.8220   15.6470 C.ar   50  TRP50       0.0012
     34  CZ2       19.3990  -16.5740   17.7970 C.ar   50  TRP50       0.0191
     35  CZ3       18.8630  -14.6870   16.3860 C.ar   50  TRP50       0.0001
     36  CH2       18.5620  -15.5510   17.4400 C.ar   50  TRP50       0.0015
     37  N         25.6460  -13.0550   11.8990 N.3    52  LYS52      -0.1245
     38  CA        25.0410  -11.7810   11.5060 C.3    52  LYS52       0.1561
     39  C         26.0450  -10.6450   11.6350 C.2    52  LYS52       0.2260
     40  O         26.6120  -10.3880   12.7000 O.2    52  LYS52      -0.2867
     41  CB        23.7710  -11.5120   12.3220 C.3    52  LYS52       0.0271
     42  CG        22.9850  -10.3060   11.8280 C.3    52  LYS52       0.0035
     43  CD        22.0150   -9.7650   12.8640 C.3    52  LYS52       0.0206
     44  CE        20.7050  -10.5300   12.8720 C.3    52  LYS52       0.1093
     45  NZ        20.2980  -10.9370   14.2490 N.3    52  LYS52      -0.1314
     46  N         27.9950   -9.2760   23.0440 N.3    92  TRP92      -0.1241
     47  CA        27.2640  -10.2960   22.2940 C.3    92  TRP92       0.1605
     48  C         27.6250  -11.7070   22.7530 C.2    92  TRP92       0.2264
     49  O         26.9410  -12.6730   22.4200 O.2    92  TRP92      -0.2867
     50  CB        27.5600  -10.2320   20.8100 C.3    92  TRP92       0.0550
     51  CG        28.9720  -10.2060   20.3420 C.ar   92  TRP92       0.0003
     52  CD1       29.7110   -9.0780   20.0960 C.ar   92  TRP92       0.0946
     53  CD2       29.8430  -11.3070   20.0500 C.ar   92  TRP92       0.0152
     54  NE1       30.9710   -9.4040   19.6790 N.ar   92  TRP92      -0.2442
     55  CE2       31.0760  -10.7710   19.6400 C.ar   92  TRP92       0.0810
     56  CE3       29.6940  -12.6970   20.0960 C.ar   92  TRP92       0.0012
     57  CZ2       32.1670  -11.5620   19.2740 C.ar   92  TRP92       0.0191
     58  CZ3       30.7750  -13.4790   19.7370 C.ar   92  TRP92       0.0001
     59  CH2       31.9970  -12.9210   19.3300 C.ar   92  TRP92       0.0015
     60  N         27.9500  -12.8350   25.9290 N.3    94  GLU94      -0.1231
     61  CA        27.2940  -13.3970   27.1070 C.3    94  GLU94       0.1699
     62  C         25.8300  -13.0170   27.2320 C.2    94  GLU94       0.2592
     63  O         24.9590  -13.8980   27.2560 O.2    94  GLU94      -0.2718
     64  CB        28.0740  -12.9720   28.3580 C.3    94  GLU94       0.0402
     65  CG        27.4310  -13.4590   29.6460 C.3    94  GLU94       0.1161
     66  CD        27.8550  -12.6460   30.8560 C.2    94  GLU94       0.3649
     67  OE1       28.7760  -11.8080   30.7360 O.co2  94  GLU94      -0.2457
     68  OE2       27.2620  -12.8420   31.9380 O.co2  94  GLU94      -0.2457
     69  N         25.5190  -11.7220   27.3360 N.am   95  ASN95      -0.1960
     70  CA        24.1600  -11.3480   27.7050 C.3    95  ASN95       0.1819
     71  C         23.5710  -10.1520   26.9760 C.2    95  ASN95       0.2621
     72  O         22.5070   -9.6540   27.3930 O.2    95  ASN95      -0.2715
     73  CB        24.1710  -11.0580   29.2120 C.3    95  ASN95       0.1195
     74  CG        25.1140   -9.9270   29.5690 C.2    95  ASN95       0.2630
     75  OD1       25.8110   -9.3880   28.7170 O.2    95  ASN95      -0.2716
     76  ND2       25.1120   -9.5660   30.8480 N.am   95  ASN95      -0.0877
     77  N         24.2140   -9.6940   25.9140 N.am   96  LEU96      -0.1977
     78  CA        23.6930   -8.5490   25.1540 C.3    96  LEU96       0.1596
     79  C         23.7500   -7.2630   25.9490 C.2    96  LEU96       0.2287
     80  O         23.0510   -6.2860   25.6630 O.2    96  LEU96      -0.2864
     81  CB        22.2800   -8.8710   24.6790 C.3    96  LEU96       0.0297
     82  CG        22.0590   -9.2190   23.2060 C.3    96  LEU96       0.0022
     83  CD1       23.1430  -10.0920   22.6030 C.3    96  LEU96       0.0001
     84  CD2       20.6970   -9.8870   23.0130 C.3    96  LEU96       0.0001
     85  N         20.0050  -15.8530   32.9340 N.3   172  ILE172     -0.1245
     86  CA        20.9630  -14.9240   32.3530 C.3   172  ILE172      0.1561
     87  C         21.3950  -13.8500   33.3390 C.2   172  ILE172      0.2260
     88  O         20.6190  -13.4110   34.2030 O.2   172  ILE172     -0.2867
     89  CB        20.3210  -14.2420   31.1150 C.3   172  ILE172      0.0252
     90  CG1       19.9000  -15.2200   30.0200 C.3   172  ILE172      0.0019
     91  CG2       21.2280  -13.1500   30.5680 C.3   172  ILE172      0.0019
     92  CD1       21.0680  -15.8140   29.2680 C.3   172  ILE172      0.0001
     93  N          3.8410   -8.8800   24.8670 N.3   192  ASP192     -0.1225
     94  CA         5.2980   -8.8750   24.8100 C.3   192  ASP192      0.1805
     95  C          5.7380   -8.4650   23.4110 C.2   192  ASP192      0.2598
     96  O          4.9250   -8.4970   22.4930 O.2   192  ASP192     -0.2718
     97  CB         5.8450  -10.2600   25.1250 C.3   192  ASP192      0.1424
     98  CG         7.2960  -10.3960   25.4750 C.2   192  ASP192      0.3668
     99  OD1        8.0330   -9.3910   25.5540 O.co2 192  ASP192     -0.2456
    100  OD2        7.7350  -11.5650   25.6700 O.co2 192  ASP192     -0.2456
    101  N          7.0170   -8.1480   23.3340 N.am  193  ALA193     -0.1966
    102  CA         7.7520   -7.9620   22.1120 C.3   193  ALA193      0.1728
    103  C          8.1520   -9.3720   21.6450 C.2   193  ALA193      0.2616
    104  O          8.0400  -10.2730   22.4710 O.2   193  ALA193     -0.2715
    105  CB         8.9500   -7.0650   22.3070 C.3   193  ALA193      0.0334
    106  N          8.5810   -9.5170   20.4100 N.am  194  CYS194     -0.1954
    107  CA         8.9790  -10.8270   19.8800 C.3   194  CYS194      0.1843
    108  C          9.9790  -10.6260   18.7580 C.2   194  CYS194      0.2625
    109  O         10.3280   -9.4970   18.4290 O.2   194  CYS194     -0.2714
    110  CB         7.7630  -11.6160   19.4010 C.3   194  CYS194      0.0997
    111  SG         7.9710  -13.4230   19.3110 S.3   194  CYS194     -0.0797
    112  N         10.4360  -11.7280   18.1730 N.am  195  GLU195     -0.1977
    113  CA        11.3150  -11.6840   17.0310 C.3   195  GLU195      0.1602
    114  C         10.8030  -10.7210   15.9620 C.2   195  GLU195      0.2287
    115  O          9.6170  -10.7730   15.6250 O.2   195  GLU195     -0.2864
    116  CB        11.4400  -13.0850   16.3930 C.3   195  GLU195      0.0415
    117  CG        12.6910  -13.1940   15.5390 C.3   195  GLU195      0.1163
    118  CD        12.9740  -14.6030   15.0610 C.2   195  GLU195      0.3649
    119  OE1       14.1280  -15.0660   15.2020 O.co2 195  GLU195     -0.2457
    120  OE2       12.0360  -15.2400   14.5340 O.co2 195  GLU195     -0.2457
    121  N         12.8530   -6.4640   17.6910 N.3   198  SER198     -0.1217
    122  CA        14.2190   -6.1030   17.9650 C.3   198  SER198      0.1889
    123  C         14.5570   -4.7110   17.4250 C.2   198  SER198      0.2288
    124  O         14.2670   -4.4360   16.2710 O.2   198  SER198     -0.2866
    125  CB        15.2620   -7.0600   17.3510 C.3   198  SER198      0.2089
    126  OG        15.2410   -8.3250   17.9700 O.3   198  SER198     -0.2183
    127  N         14.0120   -2.5830   22.3270 N.3   218  VAL218     -0.1231
    128  CA        13.7150   -4.0230   22.3660 C.3   218  VAL218      0.1692
    129  C         14.9890   -4.8220   22.2160 C.2   218  VAL218      0.2593
    130  O         15.6830   -4.6950   21.1990 O.2   218  VAL218     -0.2718
    131  CB        12.7040   -4.3830   21.2570 C.3   218  VAL218      0.0266
    132  CG1       12.5030   -5.9030   21.2380 C.3   218  VAL218      0.0020
    133  CG2       11.3710   -3.6820   21.4210 C.3   218  VAL218      0.0020
    134  N         15.3460   -5.6830   23.1850 N.am  219  SER219     -0.1938
    135  CA        16.6480   -6.3470   23.0790 C.3   219  SER219      0.2055
    136  C         16.5680   -7.8690   23.0730 C.2   219  SER219      0.2643
    137  O         17.0240   -8.5190   22.1370 O.2   219  SER219     -0.2714
    138  CB        17.5060   -5.8440   24.2450 C.3   219  SER219      0.2130
    139  OG        18.7630   -6.4570   24.2960 O.3   219  SER219     -0.2179
    140  N         16.0020   -8.4780   24.1010 N.am  220  TRP220     -0.1959
    141  CA        15.9640   -9.9380   24.1690 C.3   220  TRP220      0.1771
    142  C         14.9010  -10.4270   25.1340 C.2   220  TRP220      0.2620
    143  O         14.3190   -9.6940   25.9160 O.2   220  TRP220     -0.2715
    144  CB        17.3230  -10.5050   24.5550 C.3   220  TRP220      0.0590
    145  CG        17.8160  -10.1960   25.9310 C.ar  220  TRP220      0.0006
    146  CD1       18.5000   -9.0760   26.2990 C.ar  220  TRP220      0.0946
    147  CD2       17.6870  -10.9990   27.1130 C.ar  220  TRP220      0.0152
    148  NE1       18.7920   -9.1350   27.6430 N.ar  220  TRP220     -0.2442
    149  CE2       18.3070  -10.3000   28.1590 C.ar  220  TRP220      0.0810
    150  CE3       17.1030  -12.2380   27.3930 C.ar  220  TRP220      0.0012
    151  CZ2       18.3750  -10.7800   29.4680 C.ar  220  TRP220      0.0191
    152  CZ3       17.1670  -12.7170   28.6950 C.ar  220  TRP220      0.0001
    153  CH2       17.7940  -11.9940   29.7120 C.ar  220  TRP220      0.0015
    154  N         14.6530  -11.7410   25.0470 N.am  221  GLY221     -0.1940
    155  CA        13.6890  -12.4060   25.8890 C.3   221  GLY221      0.2014
    156  C         13.8500  -13.9110   25.5800 C.2   221  GLY221      0.2639
    157  O         14.5710  -14.2610   24.6480 O.2   221  GLY221     -0.2714
    158  N         13.1730  -14.6720   26.3910 N.am  222  GLU222     -0.1963
    159  CA        13.2010  -16.1390   26.2620 C.3   222  GLU222      0.1733
    160  C         11.7980  -16.5580   25.8850 C.2   222  GLU222      0.2617
    161  O         10.8780  -16.5380   26.7040 O.2   222  GLU222     -0.2715
    162  CB        13.7020  -16.7550   27.5560 C.3   222  GLU222      0.0429
    163  CG        15.1250  -16.3480   27.8960 C.3   222  GLU222      0.1163
    164  CD        15.5400  -16.7140   29.3130 C.2   222  GLU222      0.3649
    165  OE1       16.4850  -17.5220   29.4610 O.co2 222  GLU222     -0.2457
    166  OE2       14.9500  -16.2010   30.2790 O.co2 222  GLU222     -0.2457
    167  N         11.6460  -16.9070   24.6080 N.am  223  GLY223     -0.1940
    168  CA        10.2830  -17.0820   24.1050 C.3   223  GLY223      0.2014
    169  C          9.6800  -15.6800   23.9530 C.2   223  GLY223      0.2639
    170  O         10.4650  -14.7300   24.0130 O.2   223  GLY223     -0.2714
    171  N          8.3840  -15.6130   23.7770 N.am  224  CYS224     -0.1967
    172  CA         7.5660  -14.4250   23.6570 C.3   224  CYS224      0.1712
    173  C          6.2660  -14.6410   24.4240 C.2   224  CYS224      0.2296
    174  O          5.5850  -15.6400   24.1670 O.2   224  CYS224     -0.2864
    175  CB         7.2740  -14.0610   22.1950 C.3   224  CYS224      0.0983
    176  SG         8.7140  -13.9440   21.1400 S.3   224  CYS224     -0.0798
    177  N          9.8080  -12.1610   31.0460 N.3   230  TYR230     -0.1227
    178  CA         9.6660  -10.7230   30.8200 C.3   230  TYR230      0.1736
    179  C         10.5490  -10.3320   29.6550 C.2   230  TYR230      0.2596
    180  O         11.5680  -10.9700   29.3660 O.2   230  TYR230     -0.2718
    181  CB        10.0210   -9.9170   32.0840 C.3   230  TYR230      0.0548
    182  CG         9.1210  -10.3070   33.2420 C.ar  230  TYR230     -0.0200
    183  CD1        9.4910  -11.3400   34.1060 C.ar  230  TYR230     -0.0009
    184  CD2        7.9100   -9.6920   33.4510 C.ar  230  TYR230     -0.0009
    185  CE1        8.6860  -11.7200   35.1560 C.ar  230  TYR230      0.0417
    186  CE2        7.0760  -10.0500   34.5040 C.ar  230  TYR230      0.0417
    187  CZ         7.4820  -11.0680   35.3440 C.ar  230  TYR230      0.1957
    188  OH         6.6640  -11.4300   36.3810 O.3   230  TYR230     -0.2866
    189  N         10.1670   -9.2640   28.9450 N.am  231  GLY231     -0.1942
    190  CA        11.0250   -8.8150   27.8610 C.3   231  GLY231      0.2014
    191  C         12.1060   -7.9110   28.4470 C.2   231  GLY231      0.2639
    192  O         11.8300   -7.2010   29.4170 O.2   231  GLY231     -0.2714
    193  N         13.2840   -7.9710   27.8490 N.am  232  PHE232     -0.1959
    194  CA        14.3960   -7.1250   28.2680 C.3   232  PHE232      0.1771
    195  C         14.6930   -6.0630   27.2190 C.2   232  PHE232      0.2619
    196  O         14.6840   -6.3490   26.0270 O.2   232  PHE232     -0.2715
    197  CB        15.6220   -7.9990   28.5520 C.3   232  PHE232      0.0574
    198  CG        15.4220   -8.8140   29.8340 C.ar  232  PHE232     -0.0200
    199  CD1       14.7260   -9.9940   29.8880 C.ar  232  PHE232     -0.0042
    200  CD2       15.9720   -8.3270   31.0200 C.ar  232  PHE232     -0.0042
    201  CE1       14.5560  -10.7040   31.0810 C.ar  232  PHE232     -0.0003
    202  CE2       15.8170   -9.0180   32.2080 C.ar  232  PHE232     -0.0003
    203  CZ        15.1120  -10.2100   32.2480 C.ar  232  PHE232     -0.0000
    204  N         14.9530   -4.8660   27.7020 N.am  233  TYR233     -0.1974
    205  CA        15.1750   -3.6010   27.0460 C.3   233  TYR233      0.1639
    206  C         16.4950   -2.9850   27.4580 C.2   233  TYR233      0.2290
    207  O         16.8790   -2.9090   28.6240 O.2   233  TYR233     -0.2864
    208  CB        13.9950   -2.6660   27.3560 C.3   233  TYR233      0.0560
    209  CG        12.6940   -3.3070   26.9220 C.ar  233  TYR233     -0.0198
    210  CD1       11.9840   -4.1490   27.7660 C.ar  233  TYR233     -0.0009
    211  CD2       12.1520   -3.0700   25.6580 C.ar  233  TYR233     -0.0009
    212  CE1       10.8020   -4.7360   27.4000 C.ar  233  TYR233      0.0417
    213  CE2       10.9600   -3.6690   25.2890 C.ar  233  TYR233      0.0417
    214  CZ        10.2830   -4.4990   26.1470 C.ar  233  TYR233      0.1957
    215  OH         9.1010   -5.1070   25.7800 O.3   233  TYR233     -0.2866
@<TRIPOS>BOND
     1    38    39    1
     2    38    37    1
     3    38    41    1
     4    39    40    2
     5    26    25    2
     6    42    41    1
     7    42    43    1
     8    25    24    1
     9    43    44    1
    10    44    45    1
    11    24    27    1
    12    24    23    1
    13    27    28    1
    14   120   118   ar
    15   118   119   ar
    16   118   117    1
    17    14    13    2
    18    11    12    1
    19    28    30   ar
    20    28    29   ar
    21   117   116    1
    22   115   114    2
    23    33    30   ar
    24    33    35   ar
    25    13    12    1
    26     4     3    2
    27   114   113    1
    28    30    32   ar
    29    12    15    1
    30    29    31   ar
    31   124   123    2
    32    35    36   ar
    33   116   113    1
    34     3     2    1
    35    15    16    1
    36   113   112    1
    37    32    31   ar
    38    32    34   ar
    39   125   122    1
    40   125   126    1
    41   123   122    1
    42    36    34   ar
    43    18    16   ar
    44    18    20   ar
    45    16    17   ar
    46   121   122    1
    47     2     1    1
    48     2     5    1
    49     8    10   ar
    50     8     6   ar
    51   112   108   am
    52   109   108    2
    53    10     9   ar
    54    20    21   ar
    55     5     6    1
    56   108   107    1
    57     6     7   ar
    58    17    19   ar
    59    57    59   ar
    60    57    55   ar
    61   111   110    1
    62   111   176    1
    63    59    58   ar
    64   110   107    1
    65     9     7   ar
    66    55    54   ar
    67    55    53   ar
    68    54    52   ar
    69    58    56   ar
    70    21    19   ar
    71    21    22    1
    72   107   106    1
    73    53    56   ar
    74    53    51   ar
    75    52    51   ar
    76    51    50    1
    77   106   103   am
    78    50    47    1
    79   176   175    1
    80   130   129    2
    81   132   131    1
    82   131   133    1
    83   131   128    1
    84   103   102    1
    85   103   104    2
    86   102   105    1
    87   102   101    1
    88   137   136    2
    89   175   172    1
    90   129   128    1
    91   129   134   am
    92    47    48    1
    93    47    46    1
    94   127   128    1
    95    49    48    2
    96    96    95    2
    97    83    82    1
    98    84    82    1
    99   136   135    1
   100   136   140   am
   101   135   134    1
   102   135   138    1
   103    82    81    1
   104   101    95   am
   105    95    94    1
   106   172   171    1
   107   172   173    1
   108   171   169   am
   109   169   170    2
   110   169   168    1
   111   140   141    1
   112   168   167    1
   113   174   173    2
   114   141   144    1
   115   141   142    1
   116   138   139    1
   117   144   145    1
   118   167   160   am
   119   157   156    2
   120    81    78    1
   121    94    93    1
   122    94    97    1
   123   154   142   am
   124   154   155    1
   125    97    98    1
   126   142   143    2
   127    78    77    1
   128    78    79    1
   129   213   211   ar
   130   213   214   ar
   131    98    99   ar
   132    98   100   ar
   133   156   155    1
   134   156   158   am
   135   211   209   ar
   136    80    79    2
   137   215   214    1
   138   160   159    1
   139   160   161    2
   140    77    71   am
   141    60    61    1
   142   145   146   ar
   143   145   147   ar
   144   196   195    2
   145   214   212   ar
   146   159   158    1
   147   159   162    1
   148   146   148   ar
   149   209   208    1
   150   209   210   ar
   151    71    72    2
   152    71    70    1
   153   205   208    1
   154   205   206    1
   155   205   204    1
   156    61    62    1
   157    61    64    1
   158   147   150   ar
   159   147   149   ar
   160   195   204   am
   161   195   194    1
   162    62    63    2
   163    62    69   am
   164    69    70    1
   165   150   152   ar
   166   212   210   ar
   167   206   207    2
   168   162   163    1
   169   148   149   ar
   170    70    73    1
   171   193   194    1
   172   193   191   am
   173   190   191    1
   174   190   189    1
   175   163   164    1
   176   149   151   ar
   177   194   197    1
   178    64    65    1
   179   191   192    2
   180   197   198    1
   181   152   153   ar
   182    75    74    2
   183   189   179   am
   184    73    74    1
   185    92    90    1
   186   164   165   ar
   187   164   166   ar
   188   180   179    2
   189   151   153   ar
   190    74    76   am
   191    65    66    1
   192   179   178    1
   193   198   199   ar
   194   198   200   ar
   195   199   201   ar
   196    90    89    1
   197    91    89    1
   198    67    66   ar
   199   178   177    1
   200   178   181    1
   201    66    68   ar
   202   200   202   ar
   203   201   203   ar
   204    89    86    1
   205   181   182    1
   206   202   203   ar
   207    86    85    1
   208    86    87    1
   209   182   184   ar
   210   182   183   ar
   211    87    88    2
   212   184   186   ar
   213   183   185   ar
   214   186   187   ar
   215   185   187   ar
   216   187   188    1
