@<TRIPOS>MOLECULE
tmp/2zfrB01.pdb
 201 201 0 0 0
SMALL
GASTEIGER

@<TRIPOS>ATOM
      1  N         22.4980   -5.9440   18.0980 N.3    43  HIS43      -0.1241
      2  CA        22.3240   -7.3310   17.6780 C.3    43  HIS43       0.1621
      3  C         21.6000   -7.3800   16.3320 C.2    43  HIS43       0.2264
      4  O         21.7560   -8.3860   15.6460 O.2    43  HIS43      -0.2867
      5  CB        21.6000   -8.1480   18.7390 C.3    43  HIS43       0.0745
      6  CG        20.1130   -8.0620   18.8240 C.ar   43  HIS43       0.0817
      7  ND1       19.4570   -7.3010   19.7710 N.ar   43  HIS43      -0.2268
      8  CD2       19.1300   -8.6520   18.1100 C.ar   43  HIS43       0.1154
      9  CE1       18.1480   -7.4150   19.6280 C.ar   43  HIS43       0.1986
     10  NE2       17.9230   -8.2330   18.6100 N.ar   43  HIS43      -0.2212
     11  N         25.9210   -9.9910   15.1480 N.3    47  TYR47      -0.1241
     12  CA        25.6550  -11.1080   16.0530 C.3    47  TYR47       0.1605
     13  C         26.3180  -12.3720   15.4960 C.2    47  TYR47       0.2264
     14  O         25.7590  -13.2390   14.8320 O.2    47  TYR47      -0.2867
     15  CB        24.1670  -11.2670   16.3220 C.3    47  TYR47       0.0534
     16  CG        23.9480  -12.1830   17.5070 C.ar   47  TYR47      -0.0201
     17  CD1       24.3140  -11.8050   18.7900 C.ar   47  TYR47      -0.0009
     18  CD2       23.3790  -13.4330   17.3000 C.ar   47  TYR47      -0.0009
     19  CE1       24.1030  -12.6660   19.8590 C.ar   47  TYR47       0.0417
     20  CE2       23.1770  -14.2920   18.3650 C.ar   47  TYR47       0.0417
     21  CZ        23.5450  -13.8980   19.6340 C.ar   47  TYR47       0.1957
     22  OH        23.3330  -14.7700   20.6750 O.3    47  TYR47      -0.2866
     23  N         25.3130  -16.1660   14.9640 N.3    50  TRP50      -0.1241
     24  CA        24.3270  -16.5150   13.9410 C.3    50  TRP50       0.1605
     25  C         24.8310  -16.0350   12.5880 C.2    50  TRP50       0.2264
     26  O         24.0660  -15.9410   11.6400 O.2    50  TRP50      -0.2867
     27  CB        22.9710  -15.8890   14.2390 C.3    50  TRP50       0.0550
     28  CG        22.2920  -16.4980   15.4310 C.ar   50  TRP50       0.0003
     29  CD1       22.6960  -17.5890   16.1380 C.ar   50  TRP50       0.0946
     30  CD2       21.0830  -16.0470   16.0550 C.ar   50  TRP50       0.0152
     31  NE1       21.8220  -17.8520   17.1670 N.ar   50  TRP50      -0.2442
     32  CE2       20.8200  -16.9170   17.1370 C.ar   50  TRP50       0.0810
     33  CE3       20.1990  -14.9970   15.8090 C.ar   50  TRP50       0.0012
     34  CZ2       19.7100  -16.7650   17.9640 C.ar   50  TRP50       0.0191
     35  CZ3       19.0980  -14.8500   16.6350 C.ar   50  TRP50       0.0001
     36  CH2       18.8560  -15.7250   17.7020 C.ar   50  TRP50       0.0015
     37  N         25.7820  -13.0920   11.8310 N.3    52  LYS52      -0.1245
     38  CA        25.2330  -11.7940   11.4360 C.3    52  LYS52       0.1561
     39  C         26.2290  -10.6590   11.6510 C.2    52  LYS52       0.2260
     40  O         26.7020  -10.4530   12.7650 O.2    52  LYS52      -0.2867
     41  CB        23.9290  -11.5050   12.1800 C.3    52  LYS52       0.0271
     42  CG        23.3380  -10.1510   11.7780 C.3    52  LYS52       0.0035
     43  CD        22.2830   -9.6930   12.7630 C.3    52  LYS52       0.0206
     44  CE        20.9470  -10.3790   12.5950 C.3    52  LYS52       0.1093
     45  NZ        20.2550  -10.5520   13.9070 N.3    52  LYS52      -0.1314
     46  N         28.1370  -12.8440   25.7880 N.3    94  GLU94      -0.1231
     47  CA        27.4580  -13.3610   26.9690 C.3    94  GLU94       0.1699
     48  C         25.9980  -12.9820   27.1020 C.2    94  GLU94       0.2592
     49  O         25.1080  -13.8390   27.1080 O.2    94  GLU94      -0.2718
     50  CB        28.1710  -12.8480   28.2380 C.3    94  GLU94       0.0402
     51  CG        27.5420  -13.4720   29.4820 C.3    94  GLU94       0.1161
     52  CD        27.8450  -12.7330   30.7690 C.2    94  GLU94       0.3649
     53  OE1       28.7330  -11.8490   30.7650 O.co2  94  GLU94      -0.2457
     54  OE2       27.1920  -13.0340   31.7930 O.co2  94  GLU94      -0.2457
     55  N         25.7140  -11.6830   27.2490 N.am   95  ASN95      -0.1960
     56  CA        24.3310  -11.3500   27.5770 C.3    95  ASN95       0.1819
     57  C         23.7600  -10.1720   26.8010 C.2    95  ASN95       0.2621
     58  O         22.7000   -9.6630   27.1830 O.2    95  ASN95      -0.2715
     59  CB        24.2780  -11.0710   29.0820 C.3    95  ASN95       0.1195
     60  CG        25.2440   -9.9800   29.5020 C.2    95  ASN95       0.2630
     61  OD1       26.0360   -9.4790   28.7020 O.2    95  ASN95      -0.2716
     62  ND2       25.1740   -9.6150   30.7800 N.am   95  ASN95      -0.0877
     63  N         24.3950   -9.7050   25.7370 N.am   96  LEU96      -0.1977
     64  CA        23.8500   -8.5500   25.0070 C.3    96  LEU96       0.1596
     65  C         23.8620   -7.2780   25.8290 C.2    96  LEU96       0.2287
     66  O         23.1080   -6.3250   25.6250 O.2    96  LEU96      -0.2864
     67  CB        22.4270   -8.8580   24.5110 C.3    96  LEU96       0.0297
     68  CG        22.2040   -9.0480   23.0190 C.3    96  LEU96       0.0022
     69  CD1       23.2640   -9.9300   22.3800 C.3    96  LEU96       0.0001
     70  CD2       20.8150   -9.6360   22.7510 C.3    96  LEU96       0.0001
     71  N         20.0970  -15.8210   32.9220 N.3   171  ILE171     -0.1245
     72  CA        21.0670  -14.8900   32.3430 C.3   171  ILE171      0.1561
     73  C         21.5250  -13.8290   33.3310 C.2   171  ILE171      0.2260
     74  O         20.7950  -13.4000   34.2340 O.2   171  ILE171     -0.2867
     75  CB        20.4560  -14.2400   31.0840 C.3   171  ILE171      0.0252
     76  CG1       20.0660  -15.2920   30.0390 C.3   171  ILE171      0.0019
     77  CG2       21.3770  -13.1920   30.4950 C.3   171  ILE171      0.0019
     78  CD1       21.2760  -16.0690   29.5540 C.3   171  ILE171      0.0001
     79  N          3.9380   -8.9420   24.8830 N.3   191  ASP191     -0.1225
     80  CA         5.3990   -8.9250   24.8390 C.3   191  ASP191      0.1805
     81  C          5.8620   -8.5150   23.4490 C.2   191  ASP191      0.2598
     82  O          5.0950   -8.5890   22.4940 O.2   191  ASP191     -0.2718
     83  CB         5.9360  -10.3040   25.2100 C.3   191  ASP191      0.1424
     84  CG         7.3920  -10.4350   25.5460 C.2   191  ASP191      0.3668
     85  OD1        8.1120   -9.4190   25.6420 O.co2 191  ASP191     -0.2456
     86  OD2        7.8580  -11.5940   25.7210 O.co2 191  ASP191     -0.2456
     87  N          7.1150   -8.0970   23.3380 N.am  192  ALA192     -0.1966
     88  CA         7.8280   -7.9680   22.0980 C.3   192  ALA192      0.1728
     89  C          8.2230   -9.3840   21.6630 C.2   192  ALA192      0.2616
     90  O          8.1210  -10.3170   22.4640 O.2   192  ALA192     -0.2715
     91  CB         9.0590   -7.0970   22.2450 C.3   192  ALA192      0.0334
     92  N          8.6620   -9.5290   20.4330 N.am  193  CYS193     -0.1954
     93  CA         9.0150  -10.8690   19.9370 C.3   193  CYS193      0.1843
     94  C          9.9970  -10.6940   18.7890 C.2   193  CYS193      0.2625
     95  O         10.3020   -9.5500   18.4380 O.2   193  CYS193     -0.2714
     96  CB         7.7580  -11.6420   19.5510 C.3   193  CYS193      0.0997
     97  SG         7.9300  -13.4370   19.3780 S.3   193  CYS193     -0.0797
     98  N         10.4850  -11.7900   18.2250 N.am  194  GLU194     -0.1977
     99  CA        11.4290  -11.7060   17.1130 C.3   194  GLU194      0.1602
    100  C         10.8860  -10.7990   16.0120 C.2   194  GLU194      0.2287
    101  O          9.6880  -10.8770   15.7170 O.2   194  GLU194     -0.2864
    102  CB        11.7190  -13.1080   16.5770 C.3   194  GLU194      0.0415
    103  CG        11.5970  -13.2780   15.0760 C.3   194  GLU194      0.1163
    104  CD        12.2460  -14.5640   14.5890 C.2   194  GLU194      0.3649
    105  OE1       13.4880  -14.6180   14.4720 O.co2 194  GLU194     -0.2457
    106  OE2       11.5020  -15.5320   14.3280 O.co2 194  GLU194     -0.2457
    107  N         12.9060   -6.4410   17.5540 N.3   197  SER197     -0.1217
    108  CA        14.2760   -6.0780   17.8280 C.3   197  SER197      0.1889
    109  C         14.6490   -4.6920   17.3260 C.2   197  SER197      0.2288
    110  O         14.4580   -4.4080   16.1430 O.2   197  SER197     -0.2866
    111  CB        15.2760   -7.0660   17.1810 C.3   197  SER197      0.2089
    112  OG        15.3900   -8.2460   17.9490 O.3   197  SER197     -0.2183
    113  N         14.1240   -2.6040   22.3190 N.3   217  VAL217     -0.1231
    114  CA        13.8260   -4.0310   22.3570 C.3   217  VAL217      0.1692
    115  C         15.0940   -4.8460   22.1640 C.2   217  VAL217      0.2593
    116  O         15.7160   -4.7580   21.1050 O.2   217  VAL217     -0.2718
    117  CB        12.7960   -4.4080   21.2710 C.3   217  VAL217      0.0266
    118  CG1       12.5170   -5.9040   21.3340 C.3   217  VAL217      0.0020
    119  CG2       11.5210   -3.6060   21.4500 C.3   217  VAL217      0.0020
    120  N         15.4750   -5.6470   23.1620 N.am  218  SER218     -0.1938
    121  CA        16.7520   -6.3400   23.0880 C.3   218  SER218      0.2055
    122  C         16.6110   -7.8550   23.0430 C.2   218  SER218      0.2643
    123  O         17.0170   -8.5040   22.0800 O.2   218  SER218     -0.2714
    124  CB        17.6270   -5.9500   24.2910 C.3   218  SER218      0.2130
    125  OG        18.9330   -6.5040   24.2150 O.3   218  SER218     -0.2179
    126  N         16.0490   -8.4760   24.0690 N.am  219  TRP219     -0.1959
    127  CA        16.0210   -9.9350   24.1220 C.3   219  TRP219      0.1771
    128  C         14.9610  -10.4370   25.0850 C.2   219  TRP219      0.2620
    129  O         14.3870   -9.7040   25.8720 O.2   219  TRP219     -0.2715
    130  CB        17.3990  -10.4740   24.5070 C.3   219  TRP219      0.0590
    131  CG        17.9020  -10.1810   25.8790 C.ar  219  TRP219      0.0006
    132  CD1       18.6180   -9.0870   26.2690 C.ar  219  TRP219      0.0946
    133  CD2       17.7460  -10.9830   27.0650 C.ar  219  TRP219      0.0152
    134  NE1       18.9130   -9.1480   27.6080 N.ar  219  TRP219     -0.2442
    135  CE2       18.3870  -10.3080   28.1180 C.ar  219  TRP219      0.0810
    136  CE3       17.1200  -12.2060   27.3330 C.ar  219  TRP219      0.0012
    137  CZ2       18.4370  -10.8010   29.4250 C.ar  219  TRP219      0.0191
    138  CZ3       17.1670  -12.6950   28.6310 C.ar  219  TRP219      0.0001
    139  CH2       17.8150  -11.9980   29.6520 C.ar  219  TRP219      0.0015
    140  N         14.6930  -11.7280   25.0040 N.am  220  GLY220     -0.1940
    141  CA        13.7560  -12.4640   25.8130 C.3   220  GLY220      0.2014
    142  C         13.9510  -13.9620   25.5150 C.2   220  GLY220      0.2639
    143  O         14.6360  -14.2690   24.5480 O.2   220  GLY220     -0.2714
    144  N         13.3740  -14.7860   26.3490 N.am  221  GLU221     -0.1963
    145  CA        13.2880  -16.2330   26.2730 C.3   221  GLU221      0.1733
    146  C         11.8580  -16.6180   25.8900 C.2   221  GLU221      0.2617
    147  O         10.8900  -16.5910   26.6420 O.2   221  GLU221     -0.2715
    148  CB        13.6790  -16.9040   27.5850 C.3   221  GLU221      0.0429
    149  CG        15.0750  -16.5320   28.0610 C.3   221  GLU221      0.1163
    150  CD        15.2630  -16.8520   29.5370 C.2   221  GLU221      0.3649
    151  OE1       15.0200  -18.0140   29.9340 O.co2 221  GLU221     -0.2457
    152  OE2       15.6430  -15.9410   30.2990 O.co2 221  GLU221     -0.2457
    153  N         11.7530  -16.9550   24.6070 N.am  222  GLY222     -0.1940
    154  CA        10.4100  -17.1150   24.0610 C.3   222  GLY222      0.2014
    155  C          9.7830  -15.7370   23.8830 C.2   222  GLY222      0.2639
    156  O         10.5150  -14.7540   23.7550 O.2   222  GLY222     -0.2714
    157  N          8.4670  -15.6880   23.8660 N.am  223  CYS223     -0.1967
    158  CA         7.6960  -14.4620   23.7460 C.3   223  CYS223      0.1712
    159  C          6.3900  -14.6540   24.5230 C.2   223  CYS223      0.2296
    160  O          5.7140  -15.6640   24.3190 O.2   223  CYS223     -0.2864
    161  CB         7.3940  -14.0650   22.3130 C.3   223  CYS223      0.0983
    162  SG         8.7460  -14.0620   21.1350 S.3   223  CYS223     -0.0798
    163  N          9.8560  -12.0670   31.1380 N.3   229  TYR229     -0.1227
    164  CA         9.7590  -10.6410   30.8810 C.3   229  TYR229      0.1736
    165  C         10.6420  -10.2790   29.7030 C.2   229  TYR229      0.2596
    166  O         11.6580  -10.9240   29.4300 O.2   229  TYR229     -0.2718
    167  CB        10.1510   -9.7950   32.1200 C.3   229  TYR229      0.0548
    168  CG         9.2390  -10.2240   33.2590 C.ar  229  TYR229     -0.0200
    169  CD1        9.6530  -11.2410   34.1180 C.ar  229  TYR229     -0.0009
    170  CD2        7.9860   -9.6790   33.4420 C.ar  229  TYR229     -0.0009
    171  CE1        8.8390  -11.6600   35.1460 C.ar  229  TYR229      0.0417
    172  CE2        7.1590  -10.0930   34.4720 C.ar  229  TYR229      0.0417
    173  CZ         7.5960  -11.0880   35.3190 C.ar  229  TYR229      0.1957
    174  OH         6.7750  -11.5050   36.3470 O.3   229  TYR229     -0.2866
    175  N         10.2400   -9.2290   28.9870 N.am  230  GLY230     -0.1942
    176  CA        11.0550   -8.7760   27.8790 C.3   230  GLY230      0.2014
    177  C         12.1620   -7.8950   28.4610 C.2   230  GLY230      0.2639
    178  O         11.8890   -7.1910   29.4320 O.2   230  GLY230     -0.2714
    179  N         13.3370   -7.9680   27.8680 N.am  231  PHE231     -0.1959
    180  CA        14.4730   -7.1410   28.2500 C.3   231  PHE231      0.1771
    181  C         14.7530   -6.0660   27.2060 C.2   231  PHE231      0.2619
    182  O         14.6500   -6.2810   26.0050 O.2   231  PHE231     -0.2715
    183  CB        15.7270   -7.9800   28.5040 C.3   231  PHE231      0.0574
    184  CG        15.5560   -8.7990   29.7870 C.ar  231  PHE231     -0.0200
    185  CD1       14.8400   -9.9790   29.7800 C.ar  231  PHE231     -0.0042
    186  CD2       16.1100   -8.3480   30.9760 C.ar  231  PHE231     -0.0042
    187  CE1       14.6780  -10.7160   30.9460 C.ar  231  PHE231     -0.0003
    188  CE2       15.9670   -9.0750   32.1450 C.ar  231  PHE231     -0.0003
    189  CZ        15.2380  -10.2580   32.1270 C.ar  231  PHE231     -0.0000
    190  N         15.0930   -4.9090   27.7500 N.am  232  TYR232     -0.1974
    191  CA        15.2830   -3.6630   27.0320 C.3   232  TYR232      0.1639
    192  C         16.6120   -3.0280   27.3970 C.2   232  TYR232      0.2290
    193  O         17.0230   -2.9590   28.5540 O.2   232  TYR232     -0.2864
    194  CB        14.0770   -2.7570   27.3390 C.3   232  TYR232      0.0560
    195  CG        12.7600   -3.3650   26.9150 C.ar  232  TYR232     -0.0198
    196  CD1       12.0610   -4.2460   27.7330 C.ar  232  TYR232     -0.0009
    197  CD2       12.1910   -3.0790   25.6770 C.ar  232  TYR232     -0.0009
    198  CE1       10.8640   -4.8260   27.3920 C.ar  232  TYR232      0.0417
    199  CE2       10.9920   -3.6640   25.3210 C.ar  232  TYR232      0.0417
    200  CZ        10.3270   -4.5250   26.1600 C.ar  232  TYR232      0.1957
    201  OH         9.1390   -5.1050   25.7910 O.3   232  TYR232     -0.2866
@<TRIPOS>BOND
     1    38    39    1
     2    38    37    1
     3    38    41    1
     4    26    25    2
     5    39    40    2
     6    42    41    1
     7    42    43    1
     8    25    24    1
     9    44    43    1
    10    44    45    1
    11    24    27    1
    12    24    23    1
    13    27    28    1
    14   106   104   ar
    15   105   104   ar
    16   104   103    1
    17    14    13    2
    18   103   102    1
    19    11    12    1
    20    28    30   ar
    21    28    29   ar
    22    13    12    1
    23     4     3    2
    24   101   100    2
    25    33    30   ar
    26    33    35   ar
    27   100    99    1
    28    12    15    1
    29    30    32   ar
    30    29    31   ar
    31   110   109    2
    32    15    16    1
    33     3     2    1
    34   102    99    1
    35    35    36   ar
    36    99    98    1
    37    32    31   ar
    38    32    34   ar
    39   111   108    1
    40   111   112    1
    41    18    16   ar
    42    18    20   ar
    43   109   108    1
    44    16    17   ar
    45   107   108    1
    46     2     1    1
    47     2     5    1
    48    36    34   ar
    49     8    10   ar
    50     8     6   ar
    51    98    94   am
    52    20    21   ar
    53    95    94    2
    54    10     9   ar
    55     5     6    1
    56    94    93    1
    57    17    19   ar
    58     6     7   ar
    59    97    96    1
    60    97   162    1
    61    96    93    1
    62     9     7   ar
    63    21    19   ar
    64    21    22    1
    65    93    92    1
    66    92    89   am
    67   116   115    2
    68   162   161    1
    69   117   118    1
    70   117   119    1
    71   117   114    1
    72    89    88    1
    73    89    90    2
    74   123   122    2
    75    88    91    1
    76    88    87    1
    77   115   114    1
    78   115   120   am
    79   161   158    1
    80   113   114    1
    81    69    68    1
    82    82    81    2
    83    70    68    1
    84    68    67    1
    85   122   121    1
    86   122   126   am
    87   121   120    1
    88   121   124    1
    89    87    81   am
    90    81    80    1
    91   158   157    1
    92   158   159    1
    93   156   155    2
    94   157   155   am
    95   155   154    1
    96   154   153    1
    97   126   127    1
    98   127   130    1
    99   127   128    1
   100   125   124    1
   101   160   159    2
   102   130   131    1
   103    67    64    1
   104   143   142    2
   105   153   146   am
   106    80    79    1
   107    80    83    1
   108   140   128   am
   109   140   141    1
   110    64    63    1
   111    64    65    1
   112   128   129    2
   113    83    84    1
   114   199   197   ar
   115   199   200   ar
   116   142   141    1
   117   142   144   am
   118    84    85   ar
   119    84    86   ar
   120    66    65    2
   121   197   195   ar
   122    63    57   am
   123    46    47    1
   124   201   200    1
   125   131   132   ar
   126   131   133   ar
   127   146   145    1
   128   146   147    2
   129   182   181    2
   130   200   198   ar
   131   132   134   ar
   132   145   144    1
   133   145   148    1
   134    57    58    2
   135    57    56    1
   136   195   194    1
   137   195   196   ar
   138    47    48    1
   139    47    50    1
   140   191   194    1
   141   191   192    1
   142   191   190    1
   143   133   136   ar
   144   133   135   ar
   145    48    49    2
   146    48    55   am
   147   181   190   am
   148   181   180    1
   149    55    56    1
   150   136   138   ar
   151   198   196   ar
   152   192   193    2
   153    56    59    1
   154   148   149    1
   155   134   135   ar
   156   179   180    1
   157   179   177   am
   158   176   177    1
   159   176   175    1
   160   149   150    1
   161   135   137   ar
   162    50    51    1
   163   180   183    1
   164   177   178    2
   165   183   184    1
   166   138   139   ar
   167    61    60    2
   168   175   165   am
   169    59    60    1
   170   137   139   ar
   171   166   165    2
   172    51    52    1
   173    60    62   am
   174   150   151   ar
   175   150   152   ar
   176    78    76    1
   177   165   164    1
   178   185   184   ar
   179   185   187   ar
   180   184   186   ar
   181    76    75    1
   182    77    75    1
   183    53    52   ar
   184    52    54   ar
   185   164   163    1
   186   164   167    1
   187   187   189   ar
   188   186   188   ar
   189    75    72    1
   190   167   168    1
   191   189   188   ar
   192    72    71    1
   193    72    73    1
   194   168   170   ar
   195   168   169   ar
   196    73    74    2
   197   170   172   ar
   198   169   171   ar
   199   172   173   ar
   200   171   173   ar
   201   173   174    1
