@<TRIPOS>MOLECULE
tmp/2zftA00.pdb
 162 159 0 0 0
SMALL
GASTEIGER

@<TRIPOS>ATOM
      1  N        -29.4100   -4.0310    8.7630 N.3    40  HIS40      -0.1241
      2  CA       -29.8590   -2.6690    9.0510 C.3    40  HIS40       0.1621
      3  C        -29.4430   -1.7010    7.9310 C.2    40  HIS40       0.2264
      4  O        -29.9150   -0.5700    7.9260 O.2    40  HIS40      -0.2867
      5  CB       -29.3850   -2.1790   10.4140 C.3    40  HIS40       0.0745
      6  CG       -27.9980   -1.6880   10.6080 C.ar   40  HIS40       0.0817
      7  ND1      -27.0310   -2.4680   11.2220 N.ar   40  HIS40      -0.2268
      8  CD2      -27.3880   -0.5160   10.3080 C.ar   40  HIS40       0.1154
      9  CE1      -25.8940   -1.8060   11.2760 C.ar   40  HIS40       0.1986
     10  NE2      -26.0900   -0.6240   10.7250 N.ar   40  HIS40      -0.2212
     11  N        -35.1720   -5.9550   13.8170 N.3    78  SER78      -0.1202
     12  CA       -34.5960   -4.6160   13.7640 C.3    78  SER78       0.2020
     13  C        -34.5360   -3.9310   15.1220 C.2    78  SER78       0.2619
     14  O        -33.8560   -2.9180   15.3100 O.2    78  SER78      -0.2717
     15  CB       -35.3880   -3.7470   12.7880 C.3    78  SER78       0.2103
     16  OG       -36.7770   -3.7270   13.0750 O.3    78  SER78      -0.2182
     17  N        -35.2640   -4.4700   16.0950 N.am   79  ASN79      -0.1960
     18  CA       -35.3430   -3.7910   17.3880 C.3    79  ASN79       0.1819
     19  C        -34.1460   -4.1510   18.2610 C.2    79  ASN79       0.2622
     20  O        -33.6010   -3.3090   18.9690 O.2    79  ASN79      -0.2715
     21  CB       -36.6450   -4.1510   18.0990 C.3    79  ASN79       0.1195
     22  CG       -37.8770   -3.5210   17.4540 C.2    79  ASN79       0.2630
     23  OD1      -37.8590   -2.3670   17.0280 O.2    79  ASN79      -0.2716
     24  ND2      -38.9390   -4.3160   17.3900 N.am   79  ASN79      -0.0877
     25  N        -33.7650   -5.4190   18.2000 N.am   80  THR80      -0.1937
     26  CA       -32.6700   -5.9830   18.9610 C.3    80  THR80       0.2028
     27  C        -31.3910   -6.1590   18.1480 C.2    80  THR80       0.2642
     28  O        -30.3270   -6.4110   18.7130 O.2    80  THR80      -0.2714
     29  CB       -33.0200   -7.3990   19.4580 C.3    80  THR80       0.1808
     30  OG1      -33.2190   -8.2310   18.3040 O.3    80  THR80      -0.2208
     31  CG2      -34.2900   -7.4130   20.2950 C.3    80  THR80       0.0379
     32  N        -31.5160   -6.0540   16.8350 N.am   81  LEU81      -0.1977
     33  CA       -30.5000   -6.3300   15.8390 C.3    81  LEU81       0.1596
     34  C        -29.9630   -7.7570   15.8880 C.2    81  LEU81       0.2287
     35  O        -28.8340   -8.0270   15.4500 O.2    81  LEU81      -0.2864
     36  CB       -29.3550   -5.3180   15.9460 C.3    81  LEU81       0.0297
     37  CG       -29.6690   -3.8600   15.6010 C.3    81  LEU81       0.0022
     38  CD1      -28.4090   -2.9910   15.6360 C.3    81  LEU81       0.0001
     39  CD2      -30.3660   -3.7300   14.2550 C.3    81  LEU81       0.0001
     40  N        -28.7940   -7.5190   26.1600 N.3   155  GLN155     -0.1245
     41  CA       -28.8840   -7.0830   24.7550 C.3   155  GLN155      0.1566
     42  C        -27.9820   -7.8840   23.8290 C.2   155  GLN155      0.2260
     43  O        -28.1040   -7.7560   22.6020 O.2   155  GLN155     -0.2867
     44  CB       -28.5230   -5.5990   24.5670 C.3   155  GLN155      0.0367
     45  CG       -29.5330   -4.6520   25.1970 C.3   155  GLN155      0.0905
     46  CD       -29.3430   -3.2100   24.7890 C.2   155  GLN155      0.2608
     47  OE1      -28.2820   -2.6190   24.9590 O.2   155  GLN155     -0.2717
     48  NE2      -30.4020   -2.6220   24.2450 N.am  155  GLN155     -0.0878
     49  N        -12.6070    2.5960   17.9950 N.3   171  ASP171     -0.1225
     50  CA       -13.8910    1.9300   17.7680 C.3   171  ASP171      0.1805
     51  C        -14.3410    2.1620   16.3250 C.2   171  ASP171      0.2598
     52  O        -13.7910    3.0570   15.6850 O.2   171  ASP171     -0.2718
     53  CB       -14.9210    2.4810   18.7490 C.3   171  ASP171      0.1424
     54  CG       -16.1810    1.6640   18.9130 C.2   171  ASP171      0.3668
     55  OD1      -17.0550    2.1400   19.6650 O.co2 171  ASP171     -0.2456
     56  OD2      -16.3480    0.5630   18.3470 O.co2 171  ASP171     -0.2456
     57  N        -15.3230    1.4020   15.8740 N.am  172  SER172     -0.1938
     58  CA       -16.0220    1.7070   14.6260 C.3   172  SER172      0.2055
     59  C        -17.1490    2.6710   15.0000 C.2   172  SER172      0.2643
     60  O        -17.2880    2.9440   16.1980 O.2   172  SER172     -0.2714
     61  CB       -16.5370    0.4770   13.9170 C.3   172  SER172      0.2130
     62  OG       -17.4360   -0.2880   14.7130 O.3   172  SER172     -0.2179
     63  N        -17.9050    3.1700   14.0360 N.am  173  CYS173     -0.1953
     64  CA       -18.8650    4.2320   14.3040 C.3   173  CYS173      0.1843
     65  C        -19.8830    4.3300   13.1760 C.2   173  CYS173      0.2625
     66  O        -19.8310    3.5400   12.2270 O.2   173  CYS173     -0.2714
     67  CB       -18.1020    5.5440   14.4900 C.3   173  CYS173      0.0997
     68  SG       -19.0320    6.8580   15.3200 S.3   173  CYS173     -0.0797
     69  N        -20.7960    5.2960   13.2860 N.am  174  GLN174     -0.1977
     70  CA       -21.8390    5.4260   12.2700 C.3   174  GLN174      0.1601
     71  C        -21.1920    5.5790   10.8970 C.2   174  GLN174      0.2287
     72  O        -20.1970    6.3010   10.8170 O.2   174  GLN174     -0.2864
     73  CB       -22.7570    6.6090   12.5660 C.3   174  GLN174      0.0394
     74  CG       -24.0370    6.2600   13.2980 C.3   174  GLN174      0.0908
     75  CD       -23.9890    5.9930   14.7780 C.2   174  GLN174      0.2608
     76  OE1      -24.8670    5.2870   15.3030 O.2   174  GLN174     -0.2717
     77  NE2      -23.0180    6.5060   15.5300 N.am  174  GLN174     -0.0878
     78  N        -21.1610    0.8770    9.4350 N.3   177  SER177     -0.1217
     79  CA       -22.1960   -0.1350    9.4040 C.3   177  SER177      0.1889
     80  C        -22.0840   -1.0540    8.1850 C.2   177  SER177      0.2288
     81  O        -21.9850   -0.5710    7.0600 O.2   177  SER177     -0.2866
     82  CB       -23.5810    0.5140    9.3550 C.3   177  SER177      0.2089
     83  OG       -24.0630    1.0360   10.5830 O.3   177  SER177     -0.2183
     84  N        -19.9380   -4.8780   11.0670 N.3   191  VAL191     -0.1231
     85  CA       -20.1680   -3.7320   11.9530 C.3   191  VAL191      0.1692
     86  C        -21.6470   -3.5760   12.2150 C.2   191  VAL191      0.2593
     87  O        -22.4120   -3.3620   11.2740 O.2   191  VAL191     -0.2718
     88  CB       -19.5900   -2.4430   11.3540 C.3   191  VAL191      0.0266
     89  CG1      -19.9410   -1.3000   12.2860 C.3   191  VAL191      0.0020
     90  CG2      -18.0860   -2.5160   11.1430 C.3   191  VAL191      0.0020
     91  N        -22.1370   -3.6890   13.4420 N.am  192  SER192     -0.1938
     92  CA       -23.5810   -3.7380   13.6780 C.3   192  SER192      0.2055
     93  C        -24.0560   -2.6430   14.6230 C.2   192  SER192      0.2643
     94  O        -24.8390   -1.7740   14.2070 O.2   192  SER192     -0.2714
     95  CB       -23.9540   -5.1180   14.2200 C.3   192  SER192      0.2130
     96  OG       -25.3260   -5.3290   14.4790 O.3   192  SER192     -0.2179
     97  N        -23.5890   -2.6760   15.8850 N.am  193  TRP193     -0.1959
     98  CA       -24.0780   -1.6160   16.7820 C.3   193  TRP193      0.1771
     99  C        -23.0740   -1.2840   17.8790 C.2   193  TRP193      0.2620
    100  O        -21.9250   -1.7240   17.8940 O.2   193  TRP193     -0.2715
    101  CB       -25.4570   -2.0170   17.2770 C.3   193  TRP193      0.0590
    102  CG       -25.6650   -3.2350   18.1030 C.ar  193  TRP193      0.0006
    103  CD1      -25.8700   -4.5210   17.6760 C.ar  193  TRP193      0.0946
    104  CD2      -25.7100   -3.2960   19.5440 C.ar  193  TRP193      0.0152
    105  NE1      -26.0280   -5.3770   18.7310 N.ar  193  TRP193     -0.2442
    106  CE2      -25.9330   -4.6330   19.8910 C.ar  193  TRP193      0.0810
    107  CE3      -25.5790   -2.3340   20.5530 C.ar  193  TRP193      0.0012
    108  CZ2      -26.0310   -5.0580   21.2160 C.ar  193  TRP193      0.0191
    109  CZ3      -25.6720   -2.7460   21.8720 C.ar  193  TRP193      0.0001
    110  CH2      -25.8940   -4.0900   22.1700 C.ar  193  TRP193      0.0015
    111  N        -23.5190   -0.4430   18.8010 N.am  194  GLY194     -0.1940
    112  CA       -22.7690   -0.0050   19.9570 C.3   194  GLY194      0.2014
    113  C        -23.4690    1.1700   20.6060 C.2   194  GLY194      0.2640
    114  O        -24.5440    1.5930   20.1700 O.2   194  GLY194     -0.2714
    115  N        -22.8850    1.7190   21.6560 N.am  195  SER195     -0.1935
    116  CA       -23.4420    2.9230   22.2610 C.3   195  SER195      0.2055
    117  C        -22.4280    4.0600   22.1090 C.2   195  SER195      0.2644
    118  O        -21.3060    4.0390   22.6030 O.2   195  SER195     -0.2714
    119  CB       -23.8510    2.5840   23.6870 C.3   195  SER195      0.2130
    120  OG       -24.0450    3.7470   24.4650 O.3   195  SER195     -0.2179
    121  N        -22.8220    5.0990   21.3740 N.am  196  GLY196     -0.1939
    122  CA       -21.9000    6.1500   20.9720 C.3   196  GLY196      0.2014
    123  C        -20.7970    5.5180   20.1280 C.2   196  GLY196      0.2639
    124  O        -21.0780    4.4790   19.5290 O.2   196  GLY196     -0.2714
    125  N        -19.6210    6.1000   20.0790 N.am  197  CYS197     -0.1967
    126  CA       -18.4410    5.4770   19.4860 C.3   197  CYS197      0.1712
    127  C        -17.1950    5.7540   20.3260 C.2   197  CYS197      0.2296
    128  O        -17.0290    6.9090   20.7260 O.2   197  CYS197     -0.2864
    129  CB       -18.1540    5.9890   18.0780 C.3   197  CYS197      0.0983
    130  SG       -19.6350    6.0110   17.0500 S.3   197  CYS197     -0.0798
    131  N        -17.9200    0.6670   26.4680 N.3   202  LYS202     -0.1245
    132  CA       -18.9960    0.4450   25.4930 C.3   202  LYS202      0.1561
    133  C        -18.3400    0.0430   24.1770 C.2   202  LYS202      0.2260
    134  O        -18.3000    0.8780   23.2780 O.2   202  LYS202     -0.2867
    135  CB       -19.8720    1.6600   25.2910 C.3   202  LYS202      0.0271
    136  CG       -20.5480    2.2680   26.5030 C.3   202  LYS202      0.0035
    137  CD       -21.2820    1.2730   27.3730 C.3   202  LYS202      0.0206
    138  CE       -22.7660    1.1770   27.0480 C.3   202  LYS202      0.1093
    139  NZ       -23.5320    0.6090   28.1950 N.3   202  LYS202     -0.1314
    140  N        -17.5050   -2.0480   20.5800 N.3   204  GLY204     -0.1210
    141  CA       -18.3330   -2.2600   19.3890 C.3   204  GLY204      0.1956
    142  C        -18.9940   -3.6320   19.4070 C.2   204  GLY204      0.2612
    143  O        -18.4090   -4.5760   19.9510 O.2   204  GLY204     -0.2717
    144  N        -20.1880   -3.7390   18.8380 N.am  205  VAL205     -0.1965
    145  CA       -20.9330   -4.9950   18.7650 C.3   205  VAL205      0.1727
    146  C        -20.9970   -5.3820   17.2800 C.2   205  VAL205      0.2616
    147  O        -21.3350   -4.5260   16.4740 O.2   205  VAL205     -0.2715
    148  CB       -22.3280   -4.9580   19.3880 C.3   205  VAL205      0.0290
    149  CG1      -22.9200   -6.3600   19.5600 C.3   205  VAL205      0.0023
    150  CG2      -22.3460   -4.2530   20.7440 C.3   205  VAL205      0.0023
    151  N        -20.6310   -6.6100   16.9710 N.am  206  TYR206     -0.1974
    152  CA       -20.5050   -7.1340   15.6170 C.3   206  TYR206      0.1639
    153  C        -21.3220   -8.3840   15.3760 C.2   206  TYR206      0.2290
    154  O        -21.4200   -9.2690   16.2280 O.2   206  TYR206     -0.2864
    155  CB       -19.0030   -7.4040   15.3780 C.3   206  TYR206      0.0560
    156  CG       -18.2420   -6.1120   15.6050 C.ar  206  TYR206     -0.0198
    157  CD1      -18.1360   -5.2210   14.5320 C.ar  206  TYR206     -0.0009
    158  CD2      -17.6500   -5.7570   16.8030 C.ar  206  TYR206     -0.0009
    159  CE1      -17.4600   -4.0300   14.6670 C.ar  206  TYR206      0.0417
    160  CE2      -16.9710   -4.5570   16.9380 C.ar  206  TYR206      0.0417
    161  CZ       -16.8700   -3.6950   15.8760 C.ar  206  TYR206      0.1957
    162  OH       -16.2170   -2.4890   15.9590 O.3   206  TYR206     -0.2866
@<TRIPOS>BOND
     1    81    80    2
     2     4     3    2
     3     3     2    1
     4    80    79    1
     5     1     2    1
     6     2     5    1
     7    82    79    1
     8    82    83    1
     9    79    78    1
    10     8     6   ar
    11     8    10   ar
    12     5     6    1
    13     6     7   ar
    14    10     9   ar
    15    72    71    2
    16    71    70    1
    17    84    85    1
    18    90    88    1
    19     7     9   ar
    20    87    86    2
    21    88    85    1
    22    88    89    1
    23    85    86    1
    24    86    91   am
    25    66    65    2
    26    70    73    1
    27    70    69    1
    28    73    74    1
    29    15    16    1
    30    15    12    1
    31    65    69   am
    32    65    64    1
    33    74    75    1
    34    91    92    1
    35    92    95    1
    36    92    93    1
    37    12    11    1
    38    12    13    1
    39    61    58    1
    40    61    62    1
    41    63    64    1
    42    63    59   am
    43    94    93    2
    44    95    96    1
    45    39    37    1
    46    64    67    1
    47    67    68    1
    48   157   159   ar
    49   157   156   ar
    50    93    97   am
    51    58    59    1
    52    58    57    1
    53   159   161   ar
    54    75    76    2
    55    75    77   am
    56    59    60    2
    57    13    14    2
    58    13    17   am
    59    68   130    1
    60   153   152    1
    61   153   154    2
    62   155   156    1
    63   155   152    1
    64    35    34    2
    65    37    38    1
    66    37    36    1
    67   156   158   ar
    68   152   151    1
    69    52    51    2
    70    33    34    1
    71    33    36    1
    72    33    32    1
    73    57    51   am
    74   161   162    1
    75   161   160   ar
    76    97    98    1
    77    17    18    1
    78    51    50    1
    79   147   146    2
    80    98   101    1
    81    98    99    1
    82   158   160   ar
    83    32    27   am
    84   151   146   am
    85    23    22    2
    86   130   129    1
    87   101   102    1
    88   146   145    1
    89    18    21    1
    90    18    19    1
    91    24    22   am
    92    22    21    1
    93   103   102   ar
    94   103   105   ar
    95    50    49    1
    96    50    53    1
    97    99   100    2
    98    99   111   am
    99   129   126    1
   100   102   104   ar
   101    27    28    2
   102    27    26    1
   103    25    19   am
   104    25    26    1
   105    19    20    2
   106    30    29    1
   107    56    54   ar
   108   105   106   ar
   109    53    54    1
   110   145   144    1
   111   145   148    1
   112   111   112    1
   113   144   142   am
   114    54    55   ar
   115    26    29    1
   116   148   149    1
   117   148   150    1
   118   141   142    1
   119   141   140    1
   120   142   143    2
   121    29    31    1
   122   126   125    1
   123   126   127    1
   124   124   123    2
   125   104   106   ar
   126   104   107   ar
   127   106   108   ar
   128   112   113    1
   129   125   123   am
   130   123   122    1
   131   114   113    2
   132   127   128    2
   133   107   109   ar
   134   113   115   am
   135   122   121    1
   136   108   110   ar
   137   121   117   am
   138   115   116    1
   139   109   110   ar
   140   117   116    1
   141   117   118    2
   142   116   119    1
   143    43    42    2
   144   134   133    2
   145   119   120    1
   146    42    41    1
   147   133   132    1
   148    48    46   am
   149    44    41    1
   150    44    45    1
   151    41    40    1
   152    46    47    2
   153    46    45    1
   154   135   132    1
   155   135   136    1
   156   132   131    1
   157   136   137    1
   158   138   137    1
   159   138   139    1
