@<TRIPOS>MOLECULE
tmp/2zg1A00.pdb
 95 93 0 0 0
SMALL
GASTEIGER

@<TRIPOS>ATOM
      1  N         35.4770    5.9280   51.0870 N.3     2  TYR2       -0.1241
      2  CA        35.9700    6.3840   49.7960 C.3     2  TYR2        0.1605
      3  C         35.6210    5.3010   48.7900 C.2     2  TYR2        0.2264
      4  O         36.2390    4.2390   48.7630 O.2     2  TYR2       -0.2867
      5  CB        37.4870    6.6050   49.8340 C.3     2  TYR2        0.0534
      6  CG        37.9120    7.8540   50.5710 C.ar    2  TYR2       -0.0201
      7  CD1       37.9090    7.9060   51.9590 C.ar    2  TYR2       -0.0009
      8  CD2       38.3040    8.9950   49.8720 C.ar    2  TYR2       -0.0009
      9  CE1       38.2880    9.0680   52.6390 C.ar    2  TYR2        0.0417
     10  CE2       38.6820   10.1620   50.5350 C.ar    2  TYR2        0.0417
     11  CZ        38.6730   10.1950   51.9170 C.ar    2  TYR2        0.1957
     12  OH        39.0430   11.3490   52.5750 O.3     2  TYR2       -0.2866
     13  N         50.0790   13.2730   41.2570 N.3    48  PRO48      -0.2102
     14  CA        49.1280   14.3820   41.3230 C.3    48  PRO48       0.1504
     15  C         49.8370   15.7210   41.3930 C.2    48  PRO48       0.2575
     16  O         49.6290   16.5790   40.5460 O.2    48  PRO48      -0.2718
     17  CB        48.3430   14.0750   42.5880 C.3    48  PRO48       0.0282
     18  CG        48.2850   12.5690   42.5540 C.3    48  PRO48       0.0208
     19  CD        49.6900   12.1880   42.1770 C.3    48  PRO48       0.0893
     20  N         50.6890   15.8730   42.4020 N.am   49  TYR49      -0.1977
     21  CA        51.4670   17.0900   42.6470 C.3    49  TYR49       0.1639
     22  C         52.1330   17.7110   41.4240 C.2    49  TYR49       0.2290
     23  O         52.1850   18.9410   41.2870 O.2    49  TYR49      -0.2864
     24  CB        52.5830   16.7990   43.6480 C.3    49  TYR49       0.0560
     25  CG        52.1790   16.7220   45.0930 C.ar   49  TYR49      -0.0198
     26  CD1       52.8710   15.8940   45.9750 C.ar   49  TYR49      -0.0009
     27  CD2       51.1600   17.5230   45.5990 C.ar   49  TYR49      -0.0009
     28  CE1       52.5640   15.8670   47.3330 C.ar   49  TYR49       0.0417
     29  CE2       50.8400   17.5110   46.9560 C.ar   49  TYR49       0.0417
     30  CZ        51.5480   16.6820   47.8240 C.ar   49  TYR49       0.1957
     31  OH        51.2630   16.6850   49.1800 O.3    49  TYR49      -0.2866
     32  N         41.0600   11.1930   41.1690 N.3   100  ARG100     -0.1245
     33  CA        41.4400   11.6880   42.4790 C.3   100  ARG100      0.1563
     34  C         40.5140   12.7960   42.9300 C.2   100  ARG100      0.2260
     35  O         40.0090   13.5640   42.1200 O.2   100  ARG100     -0.2867
     36  CB        42.8740   12.2030   42.4180 C.3   100  ARG100      0.0307
     37  CG        43.3740   12.9440   43.6460 C.3   100  ARG100      0.0489
     38  CD        44.8100   13.3820   43.3940 C.3   100  ARG100      0.2205
     39  NE        45.3430   14.1630   44.5000 N.pl3 100  ARG100     -0.0865
     40  CZ        45.7140   13.6540   45.6660 C.cat 100  ARG100      0.5346
     41  NH1       45.6210   12.3510   45.8730 N.pl3 100  ARG100      0.1354
     42  NH2       46.1440   14.4550   46.6320 N.pl3 100  ARG100      0.1354
     43  N         41.9160   18.0290   54.5660 N.3   106  ASP106     -0.1239
     44  CA        41.6790   16.6530   54.9790 C.3   106  ASP106      0.1674
     45  C         41.3630   15.6590   53.8680 C.2   106  ASP106      0.2266
     46  O         41.9920   14.6040   53.7860 O.2   106  ASP106     -0.2867
     47  CB        40.5770   16.6170   56.0400 C.3   106  ASP106      0.1410
     48  CG        41.0290   17.2210   57.3580 C.2   106  ASP106      0.3668
     49  OD1       41.9400   16.6380   57.9960 O.co2 106  ASP106     -0.2456
     50  OD2       40.4850   18.2810   57.7500 O.co2 106  ASP106     -0.2456
     51  N         41.7100   14.0570   50.5150 N.3   108  LYS108     -0.1231
     52  CA        42.6640   13.9330   49.4150 C.3   108  LYS108      0.1693
     53  C         42.6940   12.4350   49.1870 C.2   108  LYS108      0.2592
     54  O         42.8680   11.6940   50.1460 O.2   108  LYS108     -0.2718
     55  CB        44.0460   14.4310   49.8370 C.3   108  LYS108      0.0285
     56  CG        44.0330   15.8430   50.3910 C.3   108  LYS108      0.0035
     57  CD        45.3230   16.5830   50.0950 C.3   108  LYS108      0.0206
     58  CE        45.1920   18.0550   50.4780 C.3   108  LYS108      0.1093
     59  NZ        46.3800   18.8570   50.0550 N.3   108  LYS108     -0.1314
     60  N         42.5350   11.9700   47.9480 N.am  109  TYR109     -0.1962
     61  CA        42.4910   10.5260   47.7300 C.3   109  TYR109      0.1771
     62  C         42.5150   10.0590   46.2830 C.2   109  TYR109      0.2620
     63  O         41.6940   10.4740   45.4870 O.2   109  TYR109     -0.2715
     64  CB        41.2190    9.9890   48.3880 C.3   109  TYR109      0.0574
     65  CG        41.1100    8.4920   48.4460 C.ar  109  TYR109     -0.0198
     66  CD1       41.7040    7.7760   49.4810 C.ar  109  TYR109     -0.0009
     67  CD2       40.4280    7.7820   47.4560 C.ar  109  TYR109     -0.0009
     68  CE1       41.6280    6.3870   49.5330 C.ar  109  TYR109      0.0417
     69  CE2       40.3440    6.3920   47.4970 C.ar  109  TYR109      0.0417
     70  CZ        40.9500    5.7020   48.5410 C.ar  109  TYR109      0.1957
     71  OH        40.8920    4.3290   48.5920 O.3   109  TYR109     -0.2866
     72  N         43.4480    9.1850   45.9400 N.am  110  SER110     -0.1950
     73  CA        43.4940    8.6450   44.5830 C.3   110  SER110      0.1924
     74  C         42.8720    7.2450   44.5880 C.2   110  SER110      0.2314
     75  O         43.2050    6.4150   45.4280 O.2   110  SER110     -0.2863
     76  CB        44.9290    8.5610   44.0700 C.3   110  SER110      0.2116
     77  OG        45.4360    9.8470   43.7750 O.3   110  SER110     -0.2180
     78  N         43.3120    4.3650   43.3590 N.3   112  GLN112     -0.1231
     79  CA        44.2660    3.4690   42.7240 C.3   112  GLN112      0.1698
     80  C         43.7590    2.0390   42.5820 C.2   112  GLN112      0.2592
     81  O         44.3110    1.2560   41.8140 O.2   112  GLN112     -0.2718
     82  CB        45.5750    3.4920   43.5080 C.3   112  GLN112      0.0381
     83  CG        46.1800    4.8930   43.6570 C.3   112  GLN112      0.0905
     84  CD        46.7650    5.4280   42.3590 C.2   112  GLN112      0.2608
     85  OE1       46.5160    4.8860   41.2800 O.2   112  GLN112     -0.2717
     86  NE2       47.5370    6.5030   42.4580 N.am  112  GLN112     -0.0878
     87  N         42.7030    1.6980   43.3150 N.am  113  GLN113     -0.1979
     88  CA        42.1360    0.3570   43.2300 C.3   113  GLN113      0.1601
     89  C         41.2040    0.2680   42.0250 C.2   113  GLN113      0.2287
     90  O         41.1490   -0.7530   41.3430 O.2   113  GLN113     -0.2864
     91  CB        41.3590    0.0160   44.5070 C.3   113  GLN113      0.0394
     92  CG        42.1540    0.1700   45.8270 C.3   113  GLN113      0.0908
     93  CD        43.6410   -0.2150   45.7080 C.2   113  GLN113      0.2608
     94  OE1       43.9970   -1.2000   45.0460 O.2   113  GLN113     -0.2717
     95  NE2       44.5110    0.5630   46.3610 N.am  113  GLN113     -0.0878
@<TRIPOS>BOND
     1    16    15    2
     2    32    33    1
     3    13    14    1
     4    13    19    1
     5    85    84    2
     6    23    22    2
     7    14    15    1
     8    14    17    1
     9    90    89    2
    10    15    20   am
    11    22    21    1
    12    81    80    2
    13    89    88    1
    14    35    34    2
    15    19    18    1
    16    84    86   am
    17    84    83    1
    18    20    21    1
    19    36    33    1
    20    36    37    1
    21    33    34    1
    22    18    17    1
    23    80    79    1
    24    80    87   am
    25    21    24    1
    26    79    78    1
    27    79    82    1
    28    88    87    1
    29    88    91    1
    30    38    37    1
    31    38    39    1
    32    82    83    1
    33    24    25    1
    34    77    76    1
    35    76    73    1
    36    39    40    2
    37    91    92    1
    38    73    74    1
    39    73    72    1
    40    74    75    2
    41    94    93    2
    42    25    27   ar
    43    25    26   ar
    44    63    62    2
    45    27    29   ar
    46    40    41    1
    47    40    42    1
    48    93    92    1
    49    93    95   am
    50    72    62   am
    51    26    28   ar
    52    62    61    1
    53    29    30   ar
    54    28    30   ar
    55    67    69   ar
    56    67    65   ar
    57    69    70   ar
    58    61    60    1
    59    61    64    1
    60    30    31    1
    61    60    53   am
    62    64    65    1
    63    65    66   ar
    64    70    71    1
    65    70    68   ar
    66     4     3    2
    67     3     2    1
    68    53    52    1
    69    53    54    2
    70    52    55    1
    71    52    51    1
    72    66    68   ar
    73     2     5    1
    74     2     1    1
    75     5     6    1
    76    55    56    1
    77     8    10   ar
    78     8     6   ar
    79    59    58    1
    80    57    56    1
    81    57    58    1
    82    10    11   ar
    83     6     7   ar
    84    11    12    1
    85    11     9   ar
    86     7     9   ar
    87    46    45    2
    88    45    44    1
    89    43    44    1
    90    44    47    1
    91    47    48    1
    92    48    50   ar
    93    48    49   ar
