@<TRIPOS>MOLECULE
tmp/2zg3A00.pdb
 94 92 0 0 0
SMALL
GASTEIGER

@<TRIPOS>ATOM
      1  N         35.4340    6.0020   51.4740 N.3     2  TYR2       -0.1241
      2  CA        35.9460    6.4580   50.1900 C.3     2  TYR2        0.1605
      3  C         35.6520    5.3670   49.1790 C.2     2  TYR2        0.2264
      4  O         36.4230    4.4190   49.0330 O.2     2  TYR2       -0.2867
      5  CB        37.4620    6.6880   50.2330 C.3     2  TYR2        0.0534
      6  CG        37.9020    7.9400   50.9490 C.ar    2  TYR2       -0.0201
      7  CD1       38.0270    7.9700   52.3350 C.ar    2  TYR2       -0.0009
      8  CD2       38.1910    9.1020   50.2370 C.ar    2  TYR2       -0.0009
      9  CE1       38.4370    9.1340   53.0000 C.ar    2  TYR2        0.0417
     10  CE2       38.5970   10.2720   50.8910 C.ar    2  TYR2        0.0417
     11  CZ        38.7190   10.2820   52.2720 C.ar    2  TYR2        0.1957
     12  OH        39.1110   11.4370   52.9170 O.3     2  TYR2       -0.2866
     13  N         51.7160   11.4140   39.3100 N.3    47  ILE47      -0.1231
     14  CA        51.5830   11.9400   40.6690 C.3    47  ILE47       0.1678
     15  C         50.6900   13.1720   40.7110 C.2    47  ILE47       0.2434
     16  O         51.0200   14.2150   40.1470 O.2    47  ILE47      -0.2733
     17  CB        52.9450   12.3480   41.2850 C.3    47  ILE47       0.0265
     18  CG1       53.8450   11.1230   41.4500 C.3    47  ILE47       0.0019
     19  CG2       52.7230   13.0270   42.6250 C.3    47  ILE47       0.0020
     20  CD1       54.3660   10.5790   40.1400 C.3    47  ILE47       0.0001
     21  N         49.5500   13.0660   41.3980 N.am   48  PRO48      -0.2718
     22  CA        48.6300   14.1940   41.5000 C.3    48  PRO48       0.1535
     23  C         49.3520   15.5360   41.5570 C.2    48  PRO48       0.2598
     24  O         49.1500   16.3760   40.6880 O.2    48  PRO48      -0.2715
     25  CB        47.8570   13.8740   42.7740 C.3    48  PRO48       0.0310
     26  CG        47.7120   12.3840   42.6580 C.3    48  PRO48       0.0237
     27  CD        49.0970   11.9430   42.2370 C.3    48  PRO48       0.0939
     28  N         50.2120   15.7050   42.5610 N.am   49  TYR49      -0.1974
     29  CA        50.9810   16.9420   42.7690 C.3    49  TYR49       0.1639
     30  C         51.6330   17.5560   41.5460 C.2    49  TYR49       0.2290
     31  O         51.6380   18.7740   41.4070 O.2    49  TYR49      -0.2864
     32  CB        52.0900   16.7400   43.8100 C.3    49  TYR49       0.0560
     33  CG        51.6080   16.3080   45.1730 C.ar   49  TYR49      -0.0198
     34  CD1       52.0920   15.1390   45.7630 C.ar   49  TYR49      -0.0009
     35  CD2       50.6570   17.0570   45.8680 C.ar   49  TYR49      -0.0009
     36  CE1       51.6390   14.7180   47.0160 C.ar   49  TYR49       0.0417
     37  CE2       50.1940   16.6550   47.1210 C.ar   49  TYR49       0.0417
     38  CZ        50.6850   15.4800   47.6940 C.ar   49  TYR49       0.1957
     39  OH        50.2100   15.0590   48.9270 O.3    49  TYR49      -0.2866
     40  N         40.7230   11.1230   41.3320 N.3   100  ARG100     -0.1245
     41  CA        41.1070   11.6680   42.6130 C.3   100  ARG100      0.1563
     42  C         40.1220   12.7280   43.0770 C.2   100  ARG100      0.2260
     43  O         39.4860   13.4170   42.2650 O.2   100  ARG100     -0.2867
     44  CB        42.5120   12.2720   42.5320 C.3   100  ARG100      0.0307
     45  CG        42.9670   12.9360   43.8190 C.3   100  ARG100      0.0489
     46  CD        44.3170   13.5890   43.6390 C.3   100  ARG100      0.2205
     47  NE        44.8170   14.1420   44.8930 N.pl3 100  ARG100     -0.0865
     48  CZ        45.3800   13.4260   45.8580 C.cat 100  ARG100      0.5346
     49  NH1       45.5270   12.1180   45.7230 N.pl3 100  ARG100      0.1354
     50  NH2       45.7880   14.0180   46.9680 N.pl3 100  ARG100      0.1354
     51  N         41.6420   18.1240   54.6450 N.3   106  ASP106     -0.1239
     52  CA        41.3960   16.7590   55.0920 C.3   106  ASP106      0.1674
     53  C         41.1090   15.7820   53.9570 C.2   106  ASP106      0.2266
     54  O         41.8210   14.7930   53.7920 O.2   106  ASP106     -0.2867
     55  CB        40.2480   16.7360   56.1010 C.3   106  ASP106      0.1410
     56  CG        40.4050   17.7970   57.1800 C.2   106  ASP106      0.3668
     57  OD1       41.5380   17.9750   57.6770 O.co2 106  ASP106     -0.2456
     58  OD2       39.3980   18.4520   57.5360 O.co2 106  ASP106     -0.2456
     59  N         41.5410   14.1010   50.8350 N.3   108  LYS108     -0.1231
     60  CA        42.5570   13.9550   49.7970 C.3   108  LYS108      0.1693
     61  C         42.6040   12.4690   49.5530 C.2   108  LYS108      0.2592
     62  O         42.8140   11.7180   50.4950 O.2   108  LYS108     -0.2718
     63  CB        43.9270   14.4310   50.2860 C.3   108  LYS108      0.0285
     64  CG        44.0540   15.9340   50.4240 C.3   108  LYS108      0.0035
     65  CD        45.5020   16.3400   50.6790 C.3   108  LYS108      0.0206
     66  CE        45.6770   17.8610   50.7230 C.3   108  LYS108      0.1093
     67  NZ        44.9150   18.5080   51.8330 N.3   108  LYS108     -0.1314
     68  N         42.4300   12.0290   48.3080 N.am  109  TYR109     -0.1962
     69  CA        42.4060   10.5940   48.0590 C.3   109  TYR109      0.1771
     70  C         42.3140   10.1860   46.5910 C.2   109  TYR109      0.2620
     71  O         41.4550   10.6710   45.8550 O.2   109  TYR109     -0.2715
     72  CB        41.2030   10.0150   48.8060 C.3   109  TYR109      0.0574
     73  CG        41.1360    8.5160   48.8680 C.ar  109  TYR109     -0.0198
     74  CD1       41.6770    7.8220   49.9490 C.ar  109  TYR109     -0.0009
     75  CD2       40.5100    7.7860   47.8570 C.ar  109  TYR109     -0.0009
     76  CE1       41.5950    6.4400   50.0280 C.ar  109  TYR109      0.0417
     77  CE2       40.4230    6.4050   47.9240 C.ar  109  TYR109      0.0417
     78  CZ        40.9650    5.7390   49.0170 C.ar  109  TYR109      0.1957
     79  OH        40.8460    4.3740   49.1110 O.3   109  TYR109     -0.2866
     80  N         43.1910    9.2840   46.1730 N.am  110  SER110     -0.1950
     81  CA        43.1670    8.7730   44.8070 C.3   110  SER110      0.1924
     82  C         42.4960    7.3880   44.8430 C.2   110  SER110      0.2314
     83  O         42.8240    6.5570   45.6870 O.2   110  SER110     -0.2863
     84  CB        44.5910    8.6500   44.2540 C.3   110  SER110      0.2116
     85  OG        45.1680    9.9200   44.0130 O.3   110  SER110     -0.2180
     86  N         42.8840    4.5050   43.7470 N.3   112  GLN112     -0.1245
     87  CA        43.8740    3.6200   43.1350 C.3   112  GLN112      0.1566
     88  C         43.4520    2.1700   42.9150 C.2   112  GLN112      0.2260
     89  O         44.1030    1.4430   42.1580 O.2   112  GLN112     -0.2867
     90  CB        45.1590    3.6550   43.9640 C.3   112  GLN112      0.0367
     91  CG        45.8240    5.0330   44.0570 C.3   112  GLN112      0.0905
     92  CD        46.4180    5.5080   42.7320 C.2   112  GLN112      0.2608
     93  OE1       46.3690    4.8050   41.7170 O.2   112  GLN112     -0.2717
     94  NE2       46.9850    6.7100   42.7420 N.am  112  GLN112     -0.0878
@<TRIPOS>BOND
     1    13    14    1
     2    20    18    1
     3    16    15    2
     4    14    15    1
     5    14    17    1
     6    24    23    2
     7    15    21   am
     8    17    18    1
     9    17    19    1
    10    40    41    1
    11    21    22    1
    12    21    27    1
    13    31    30    2
    14    22    23    1
    15    22    25    1
    16    30    29    1
    17    23    28   am
    18    93    92    2
    19    89    88    2
    20    27    26    1
    21    43    42    2
    22    44    41    1
    23    44    45    1
    24    28    29    1
    25    41    42    1
    26    26    25    1
    27    92    94   am
    28    92    91    1
    29    29    32    1
    30    88    87    1
    31    87    86    1
    32    87    90    1
    33    46    45    1
    34    46    47    1
    35    32    33    1
    36    90    91    1
    37    85    84    1
    38    84    81    1
    39    81    82    1
    40    81    80    1
    41    82    83    2
    42    47    48    2
    43    33    34   ar
    44    33    35   ar
    45    49    48    1
    46    34    36   ar
    47    71    70    2
    48    48    50    1
    49    35    37   ar
    50    80    70   am
    51    70    69    1
    52    36    38   ar
    53    37    38   ar
    54    38    39    1
    55    75    77   ar
    56    75    73   ar
    57    77    78   ar
    58    69    68    1
    59    69    72    1
    60    68    61   am
    61    72    73    1
    62    73    74   ar
    63    78    79    1
    64    78    76   ar
    65     4     3    2
    66     3     2    1
    67    61    60    1
    68    61    62    2
    69    60    63    1
    70    60    59    1
    71    74    76   ar
    72     2     5    1
    73     2     1    1
    74     5     6    1
    75     8    10   ar
    76     8     6   ar
    77    63    64    1
    78    64    65    1
    79    65    66    1
    80    66    67    1
    81    10    11   ar
    82     6     7   ar
    83    11    12    1
    84    11     9   ar
    85     7     9   ar
    86    54    53    2
    87    53    52    1
    88    51    52    1
    89    52    55    1
    90    55    56    1
    91    56    58   ar
    92    56    57   ar
