@<TRIPOS>MOLECULE
tmp/2zgbB01.pdb
 194 195 0 0 0
SMALL
GASTEIGER

@<TRIPOS>ATOM
      1  N         22.4210   -5.8300   18.2530 N.3    43  HIS43      -0.1241
      2  CA        22.2930   -7.2080   17.8050 C.3    43  HIS43       0.1621
      3  C         21.5630   -7.2740   16.4660 C.2    43  HIS43       0.2264
      4  O         21.6030   -8.3190   15.8120 O.2    43  HIS43      -0.2867
      5  CB        21.6310   -8.1020   18.8340 C.3    43  HIS43       0.0745
      6  CG        20.1380   -8.0820   18.9180 C.ar   43  HIS43       0.0817
      7  ND1       19.4950   -7.3360   19.8800 N.ar   43  HIS43      -0.2268
      8  CD2       19.1710   -8.7090   18.2100 C.ar   43  HIS43       0.1154
      9  CE1       18.1790   -7.5100   19.7380 C.ar   43  HIS43       0.1986
     10  NE2       17.9510   -8.3400   18.7240 N.ar   43  HIS43      -0.2212
     11  N         25.7160   -9.9700   15.2510 N.3    47  TYR47      -0.1241
     12  CA        25.4140  -11.0560   16.1780 C.3    47  TYR47       0.1605
     13  C         26.0550  -12.3360   15.6270 C.2    47  TYR47       0.2264
     14  O         25.4150  -13.1810   15.0000 O.2    47  TYR47      -0.2867
     15  CB        23.9260  -11.2470   16.4420 C.3    47  TYR47       0.0534
     16  CG        23.6230  -12.2010   17.5720 C.ar   47  TYR47      -0.0201
     17  CD1       24.0060  -11.8420   18.8690 C.ar   47  TYR47      -0.0009
     18  CD2       22.9960  -13.4100   17.3720 C.ar   47  TYR47      -0.0009
     19  CE1       23.7490  -12.6840   19.9370 C.ar   47  TYR47       0.0417
     20  CE2       22.7390  -14.2540   18.4450 C.ar   47  TYR47       0.0417
     21  CZ        23.1190  -13.8770   19.7330 C.ar   47  TYR47       0.1957
     22  OH        22.8830  -14.7100   20.8070 O.3    47  TYR47      -0.2866
     23  N         24.8210  -15.9670   15.1210 N.3    50  TRP50      -0.1241
     24  CA        23.8950  -16.2790   14.0370 C.3    50  TRP50       0.1605
     25  C         24.4660  -15.8510   12.6940 C.2    50  TRP50       0.2264
     26  O         23.6760  -15.7620   11.7500 O.2    50  TRP50      -0.2867
     27  CB        22.5420  -15.5990   14.2330 C.3    50  TRP50       0.0550
     28  CG        21.7960  -16.1320   15.4250 C.ar   50  TRP50       0.0003
     29  CD1       22.1220  -17.2350   16.1660 C.ar   50  TRP50       0.0946
     30  CD2       20.6080  -15.5890   16.0150 C.ar   50  TRP50       0.0152
     31  NE1       21.2080  -17.4140   17.1800 N.ar   50  TRP50      -0.2442
     32  CE2       20.2690  -16.4160   17.1100 C.ar   50  TRP50       0.0810
     33  CE3       19.7940  -14.4910   15.7350 C.ar   50  TRP50       0.0012
     34  CZ2       19.1580  -16.1820   17.9180 C.ar   50  TRP50       0.0191
     35  CZ3       18.6910  -14.2620   16.5420 C.ar   50  TRP50       0.0001
     36  CH2       18.3740  -15.0960   17.6230 C.ar   50  TRP50       0.0015
     37  N         27.8870   -9.2280   22.8620 N.3    92  TRP92      -0.1241
     38  CA        27.1300  -10.2530   22.1390 C.3    92  TRP92       0.1605
     39  C         27.4420  -11.6760   22.6060 C.2    92  TRP92       0.2264
     40  O         26.7170  -12.6260   22.2870 O.2    92  TRP92      -0.2867
     41  CB        27.4310  -10.1990   20.6570 C.3    92  TRP92       0.0550
     42  CG        28.8620  -10.1550   20.2150 C.ar   92  TRP92       0.0003
     43  CD1       29.5940   -9.0480   19.9460 C.ar   92  TRP92       0.0946
     44  CD2       29.7320  -11.2810   19.9840 C.ar   92  TRP92       0.0152
     45  NE1       30.8820   -9.3800   19.5600 N.ar   92  TRP92      -0.2442
     46  CE2       30.9740  -10.7460   19.5790 C.ar   92  TRP92       0.0810
     47  CE3       29.5450  -12.6550   20.0880 C.ar   92  TRP92       0.0012
     48  CZ2       32.0510  -11.5840   19.2750 C.ar   92  TRP92       0.0191
     49  CZ3       30.6110  -13.4970   19.7860 C.ar   92  TRP92       0.0001
     50  CH2       31.8240  -12.9220   19.3900 C.ar   92  TRP92       0.0015
     51  N         27.6220  -12.9040   25.6450 N.3    94  GLU94      -0.1231
     52  CA        26.9260  -13.3670   26.8410 C.3    94  GLU94       0.1699
     53  C         25.4850  -12.9290   26.9790 C.2    94  GLU94       0.2592
     54  O         24.5450  -13.7110   26.8100 O.2    94  GLU94      -0.2718
     55  CB        27.6980  -12.8600   28.0700 C.3    94  GLU94       0.0402
     56  CG        27.2880  -13.6550   29.3050 C.3    94  GLU94       0.1161
     57  CD        27.5950  -12.8800   30.5710 C.2    94  GLU94       0.3649
     58  OE1       28.4890  -12.0050   30.5090 O.co2  94  GLU94      -0.2457
     59  OE2       26.9360  -13.1430   31.5970 O.co2  94  GLU94      -0.2457
     60  N         25.2710  -11.6550   27.3420 N.am   95  ASN95      -0.1960
     61  CA        23.9020  -11.2520   27.6780 C.3    95  ASN95       0.1819
     62  C         23.4130  -10.0200   26.9320 C.2    95  ASN95       0.2621
     63  O         22.4320   -9.4310   27.4270 O.2    95  ASN95      -0.2715
     64  CB        23.8430  -10.9730   29.1870 C.3    95  ASN95       0.1195
     65  CG        24.8960   -9.9730   29.6010 C.2    95  ASN95       0.2630
     66  OD1       25.6400   -9.4670   28.7670 O.2    95  ASN95      -0.2716
     67  ND2       24.9550   -9.6800   30.9010 N.am   95  ASN95      -0.0877
     68  N         24.0150   -9.6390   25.8350 N.am   96  LEU96      -0.1977
     69  CA        23.6830   -8.4620   25.0340 C.3    96  LEU96       0.1596
     70  C         23.7700   -7.1870   25.8630 C.2    96  LEU96       0.2287
     71  O         23.0550   -6.1970   25.6950 O.2    96  LEU96      -0.2864
     72  CB        22.2900   -8.5980   24.4060 C.3    96  LEU96       0.0297
     73  CG        21.9760   -9.8260   23.5610 C.3    96  LEU96       0.0022
     74  CD1       20.6370   -9.6500   22.8250 C.3    96  LEU96       0.0001
     75  CD2       23.0800  -10.1420   22.5620 C.3    96  LEU96       0.0001
     76  N         20.0840  -15.8630   32.8970 N.3   170  ILE170     -0.1245
     77  CA        21.0130  -14.9030   32.2980 C.3   170  ILE170      0.1561
     78  C         21.4130  -13.8320   33.3020 C.2   170  ILE170      0.2260
     79  O         20.5960  -13.4040   34.1390 O.2   170  ILE170     -0.2867
     80  CB        20.3720  -14.2380   31.0590 C.3   170  ILE170      0.0252
     81  CG1       19.9200  -15.2550   30.0070 C.3   170  ILE170      0.0019
     82  CG2       21.2800  -13.1890   30.4250 C.3   170  ILE170      0.0019
     83  CD1       21.0810  -15.7220   29.1530 C.3   170  ILE170      0.0001
     84  N          4.1090   -8.8870   24.8610 N.3   190  ASP190     -0.1225
     85  CA         5.5710   -8.9150   24.7970 C.3   190  ASP190      0.1805
     86  C          6.0330   -8.5450   23.4020 C.2   190  ASP190      0.2598
     87  O          5.2050   -8.5900   22.4890 O.2   190  ASP190     -0.2718
     88  CB         6.1040  -10.3210   25.1030 C.3   190  ASP190      0.1424
     89  CG         7.5580  -10.4680   25.4270 C.2   190  ASP190      0.3668
     90  OD1        8.3000   -9.4790   25.5130 O.co2 190  ASP190     -0.2456
     91  OD2        8.0360  -11.6350   25.6120 O.co2 190  ASP190     -0.2456
     92  N          7.3300   -8.2630   23.3270 N.am  191  ALA191     -0.1966
     93  CA         7.9910   -8.1890   22.0400 C.3   191  ALA191      0.1728
     94  C          8.3300   -9.6010   21.5540 C.2   191  ALA191      0.2616
     95  O          8.2700  -10.5370   22.3470 O.2   191  ALA191     -0.2715
     96  CB         9.2410   -7.3130   22.1220 C.3   191  ALA191      0.0334
     97  N          8.6370   -9.7250   20.2750 N.am  192  CYS192     -0.1954
     98  CA         9.0120  -11.0340   19.7400 C.3   192  CYS192      0.1843
     99  C          9.9740  -10.8340   18.5990 C.2   192  CYS192      0.2625
    100  O         10.3770   -9.7250   18.2670 O.2   192  CYS192     -0.2714
    101  CB         7.7430  -11.8080   19.3600 C.3   192  CYS192      0.0997
    102  SG         8.0100  -13.6240   19.2500 S.3   192  CYS192     -0.0797
    103  N         10.3720  -11.9390   17.9690 N.am  193  GLU193     -0.1977
    104  CA        11.2280  -11.8990   16.8080 C.3   193  GLU193      0.1602
    105  C         10.7560  -10.8750   15.7670 C.2   193  GLU193      0.2287
    106  O          9.5790  -10.8590   15.4270 O.2   193  GLU193     -0.2864
    107  CB        11.2580  -13.3100   16.1750 C.3   193  GLU193      0.0415
    108  CG        12.3100  -13.4240   15.0780 C.3   193  GLU193      0.1163
    109  CD        12.4450  -14.8700   14.6220 C.2   193  GLU193      0.3649
    110  OE1       13.0900  -15.6510   15.3490 O.co2 193  GLU193     -0.2457
    111  OE2       11.8930  -15.1950   13.5540 O.co2 193  GLU193     -0.2457
    112  N         13.0110   -6.6060   17.6970 N.3   196  SER196     -0.1217
    113  CA        14.3620   -6.1740   18.0300 C.3   196  SER196      0.1889
    114  C         14.7050   -4.7920   17.5190 C.2   196  SER196      0.2288
    115  O         14.4250   -4.5320   16.3430 O.2   196  SER196     -0.2866
    116  CB        15.4270   -7.1080   17.3970 C.3   196  SER196      0.2089
    117  OG        15.4100   -8.3930   18.0350 O.3   196  SER196     -0.2183
    118  N         14.1350   -2.5800   22.3530 N.3   216  VAL216     -0.1231
    119  CA        13.8410   -4.0000   22.4080 C.3   216  VAL216      0.1692
    120  C         15.1200   -4.8160   22.2660 C.2   216  VAL216      0.2593
    121  O         15.7400   -4.7160   21.2080 O.2   216  VAL216     -0.2718
    122  CB        12.8930   -4.4070   21.2800 C.3   216  VAL216      0.0266
    123  CG1       12.5350   -5.8950   21.3960 C.3   216  VAL216      0.0020
    124  CG2       11.6040   -3.5860   21.3650 C.3   216  VAL216      0.0020
    125  N         15.4200   -5.6080   23.3320 N.am  217  SER217     -0.1938
    126  CA        16.7310   -6.2870   23.2080 C.3   217  SER217      0.2055
    127  C         16.6290   -7.7940   23.2400 C.2   217  SER217      0.2643
    128  O         17.0230   -8.4570   22.2590 O.2   217  SER217     -0.2714
    129  CB        17.6140   -5.7450   24.3390 C.3   217  SER217      0.2130
    130  OG        18.9020   -6.3530   24.3570 O.3   217  SER217     -0.2179
    131  N         16.1430   -8.4080   24.3150 N.am  218  TRP218     -0.1959
    132  CA        16.1520   -9.8790   24.3620 C.3   218  TRP218      0.1771
    133  C         15.0760  -10.4110   25.2870 C.2   218  TRP218      0.2620
    134  O         14.5240   -9.7530   26.1540 O.2   218  TRP218     -0.2715
    135  CB        17.5090  -10.4160   24.8020 C.3   218  TRP218      0.0590
    136  CG        17.9870  -10.0790   26.1760 C.ar  218  TRP218      0.0006
    137  CD1       18.6850   -8.9540   26.5060 C.ar  218  TRP218      0.0946
    138  CD2       17.8430  -10.8230   27.4020 C.ar  218  TRP218      0.0152
    139  NE1       18.9740   -8.9510   27.8520 N.ar  218  TRP218     -0.2442
    140  CE2       18.4690  -10.0870   28.4200 C.ar  218  TRP218      0.0810
    141  CE3       17.2330  -12.0470   27.7270 C.ar  218  TRP218      0.0012
    142  CZ2       18.5430  -10.4820   29.7700 C.ar  218  TRP218      0.0191
    143  CZ3       17.2970  -12.4570   29.0660 C.ar  218  TRP218      0.0001
    144  CH2       17.9390  -11.6790   30.0490 C.ar  218  TRP218      0.0015
    145  N         14.7990  -11.7020   25.0670 N.am  219  GLY219     -0.1940
    146  CA        13.8200  -12.4100   25.8670 C.3   219  GLY219      0.2014
    147  C         14.0380  -13.9150   25.6660 C.2   219  GLY219      0.2639
    148  O         14.7400  -14.3520   24.7610 O.2   219  GLY219     -0.2714
    149  N         13.4080  -14.7000   26.5220 N.am  220  GLU220     -0.1963
    150  CA        13.4690  -16.1610   26.2950 C.3   220  GLU220      0.1733
    151  C         12.0690  -16.5680   25.8860 C.2   220  GLU220      0.2617
    152  O         11.0850  -16.6140   26.6100 O.2   220  GLU220     -0.2715
    153  CB        14.0130  -16.8570   27.5400 C.3   220  GLU220      0.0429
    154  CG        15.3390  -16.3030   28.0370 C.3   220  GLU220      0.1163
    155  CD        15.6860  -16.8580   29.4110 C.2   220  GLU220      0.3649
    156  OE1       16.1790  -18.0050   29.4830 O.co2 220  GLU220     -0.2457
    157  OE2       15.4590  -16.1520   30.4070 O.co2 220  GLU220     -0.2457
    158  N         11.9480  -16.8430   24.5650 N.am  221  GLY221     -0.1940
    159  CA        10.5810  -17.0540   24.1030 C.3   221  GLY221      0.2014
    160  C          9.9230  -15.6790   23.9360 C.2   221  GLY221      0.2639
    161  O         10.6530  -14.6760   23.9370 O.2   221  GLY221     -0.2714
    162  N          8.6090  -15.7120   23.7830 N.am  222  CYS222     -0.1967
    163  CA         7.8240  -14.4910   23.6380 C.3   222  CYS222      0.1712
    164  C          6.5590  -14.6900   24.4680 C.2   222  CYS222      0.2296
    165  O          5.8840  -15.7020   24.2860 O.2   222  CYS222     -0.2864
    166  CB         7.4580  -14.1630   22.1920 C.3   222  CYS222      0.0983
    167  SG         8.8360  -14.0920   21.0350 S.3   222  CYS222     -0.0798
    168  N         10.3070   -9.3060   28.9050 N.3   229  GLY229     -0.1210
    169  CA        11.1850   -8.8280   27.8450 C.3   229  GLY229      0.1956
    170  C         12.2070   -7.8920   28.4820 C.2   229  GLY229      0.2612
    171  O         11.9310   -7.2360   29.4960 O.2   229  GLY229     -0.2717
    172  N         13.4070   -7.8780   27.9040 N.am  230  PHE230     -0.1962
    173  CA        14.5330   -7.0650   28.3420 C.3   230  PHE230      0.1771
    174  C         14.8680   -5.9980   27.3070 C.2   230  PHE230      0.2619
    175  O         14.8930   -6.2820   26.1150 O.2   230  PHE230     -0.2715
    176  CB        15.7560   -7.9560   28.6390 C.3   230  PHE230      0.0574
    177  CG        15.5830   -8.6130   30.0130 C.ar  230  PHE230     -0.0200
    178  CD1       14.7900   -9.7300   30.1540 C.ar  230  PHE230     -0.0042
    179  CD2       16.2090   -8.0870   31.1340 C.ar  230  PHE230     -0.0042
    180  CE1       14.5860  -10.3530   31.3870 C.ar  230  PHE230     -0.0003
    181  CE2       16.0550   -8.6920   32.3840 C.ar  230  PHE230     -0.0003
    182  CZ        15.2590   -9.8210   32.4750 C.ar  230  PHE230     -0.0000
    183  N         15.1050   -4.8000   27.8400 N.am  231  TYR231     -0.1974
    184  CA        15.2530   -3.5710   27.0940 C.3   231  TYR231      0.1639
    185  C         16.5560   -2.8910   27.4610 C.2   231  TYR231      0.2290
    186  O         16.9450   -2.8100   28.6250 O.2   231  TYR231     -0.2864
    187  CB        14.0200   -2.6700   27.3790 C.3   231  TYR231      0.0560
    188  CG        12.7390   -3.3510   26.9510 C.ar  231  TYR231     -0.0198
    189  CD1       12.0390   -4.2120   27.7910 C.ar  231  TYR231     -0.0009
    190  CD2       12.2180   -3.1330   25.6700 C.ar  231  TYR231     -0.0009
    191  CE1       10.8660   -4.8400   27.3950 C.ar  231  TYR231      0.0417
    192  CE2       11.0560   -3.7610   25.2760 C.ar  231  TYR231      0.0417
    193  CZ        10.3910   -4.6070   26.1310 C.ar  231  TYR231      0.1957
    194  OH         9.2220   -5.2120   25.7030 O.3   231  TYR231     -0.2866
@<TRIPOS>BOND
     1    26    25    2
     2    25    24    1
     3   111   109   ar
     4    24    27    1
     5    24    23    1
     6    27    28    1
     7   109   108    1
     8   109   110   ar
     9    14    13    2
    10   108   107    1
    11    11    12    1
    12    28    30   ar
    13    28    29   ar
    14   106   105    2
    15    13    12    1
    16    33    30   ar
    17    33    35   ar
    18   105   104    1
    19     4     3    2
    20    30    32   ar
    21    29    31   ar
    22   107   104    1
    23    12    15    1
    24   115   114    2
    25    15    16    1
    26     3     2    1
    27    35    36   ar
    28   104   103    1
    29    32    31   ar
    30    32    34   ar
    31    18    16   ar
    32    18    20   ar
    33   116   113    1
    34   116   117    1
    35   114   113    1
    36    16    17   ar
    37    36    34   ar
    38   112   113    1
    39     2     1    1
    40     2     5    1
    41   103    99   am
    42     8    10   ar
    43     8     6   ar
    44   100    99    2
    45    20    21   ar
    46    99    98    1
    47    10     9   ar
    48     5     6    1
    49    17    19   ar
    50     6     7   ar
    51   102   101    1
    52   102   167    1
    53    48    50   ar
    54    48    46   ar
    55   101    98    1
    56    50    49   ar
    57    45    46   ar
    58    45    43   ar
    59    46    44   ar
    60    21    19   ar
    61    21    22    1
    62     9     7   ar
    63    98    97    1
    64    49    47   ar
    65    43    42   ar
    66    44    47   ar
    67    44    42   ar
    68    42    41    1
    69    97    94   am
    70    41    38    1
    71   167   166    1
    72   121   120    2
    73   122   124    1
    74   122   123    1
    75   122   119    1
    76    94    93    1
    77    94    95    2
    78    93    96    1
    79    93    92    1
    80    38    39    1
    81    38    37    1
    82   166   163    1
    83   128   127    2
    84   120   119    1
    85   120   125   am
    86    40    39    2
    87   118   119    1
    88    87    86    2
    89    75    73    1
    90    74    73    1
    91   126   127    1
    92   126   125    1
    93   126   129    1
    94   127   131   am
    95    92    86   am
    96    86    85    1
    97    73    72    1
    98   163   162    1
    99   163   164    1
   100   162   160   am
   101   160   161    2
   102   160   159    1
   103   159   158    1
   104   165   164    2
   105   131   132    1
   106   129   130    1
   107   132   135    1
   108   132   133    1
   109    72    69    1
   110   158   151   am
   111   148   147    2
   112    85    84    1
   113    85    88    1
   114   135   136    1
   115    69    68    1
   116    69    70    1
   117   145   133   am
   118   145   146    1
   119    88    89    1
   120   192   190   ar
   121   192   193   ar
   122   133   134    2
   123    89    90   ar
   124    89    91   ar
   125    51    52    1
   126   147   146    1
   127   147   149   am
   128   190   188   ar
   129    71    70    2
   130   194   193    1
   131    68    62   am
   132   151   150    1
   133   151   152    2
   134   175   174    2
   135   193   191   ar
   136   136   137   ar
   137   136   138   ar
   138   150   149    1
   139   150   153    1
   140   137   139   ar
   141    54    53    2
   142    52    53    1
   143    52    55    1
   144    62    63    2
   145    62    61    1
   146   188   187    1
   147   188   189   ar
   148    53    60   am
   149   184   187    1
   150   184   185    1
   151   184   183    1
   152   174   183   am
   153   174   173    1
   154    60    61    1
   155   191   189   ar
   156   138   141   ar
   157   138   140   ar
   158   185   186    2
   159   153   154    1
   160    61    64    1
   161   141   143   ar
   162   169   170    1
   163   169   168    1
   164   139   140   ar
   165   172   173    1
   166   172   170   am
   167   154   155    1
   168    55    56    1
   169   173   176    1
   170   140   142   ar
   171   170   171    2
   172   176   177    1
   173    66    65    2
   174   143   144   ar
   175    83    81    1
   176    64    65    1
   177    56    57    1
   178   155   156   ar
   179   155   157   ar
   180    65    67   am
   181   142   144   ar
   182    81    80    1
   183   177   178   ar
   184   177   179   ar
   185   178   180   ar
   186    82    80    1
   187    58    57   ar
   188    57    59   ar
   189    80    77    1
   190   179   181   ar
   191   180   182   ar
   192    77    76    1
   193    77    78    1
   194   181   182   ar
   195    78    79    2
