@<TRIPOS>MOLECULE
tmp/2zghA00.pdb
 206 203 0 0 0
SMALL
GASTEIGER

@<TRIPOS>ATOM
      1  N        -25.4760  -17.4640   27.9330 N.3    25  LEU25      -0.1231
      2  CA       -26.3850  -17.9170   26.8900 C.3    25  LEU25       0.1693
      3  C        -25.7740  -17.6800   25.5070 C.2    25  LEU25       0.2592
      4  O        -25.7680  -18.5530   24.6590 O.2    25  LEU25      -0.2718
      5  CB       -27.6670  -17.0830   27.0050 C.3    25  LEU25       0.0284
      6  CG       -29.0090  -17.7690   26.9240 C.3    25  LEU25       0.0019
      7  CD1      -30.1210  -16.8290   27.4330 C.3    25  LEU25       0.0001
      8  CD2      -29.2140  -18.1350   25.4580 C.3    25  LEU25       0.0001
      9  N        -25.2740  -16.4840   25.2730 N.am   26  CYS26      -0.1970
     10  CA       -24.6960  -16.1360   23.9920 C.3    26  CYS26       0.1712
     11  C        -23.6620  -15.0780   24.2100 C.2    26  CYS26       0.2296
     12  O        -23.6980  -14.4250   25.2460 O.2    26  CYS26      -0.2864
     13  CB       -25.7630  -15.5610   23.0890 C.3    26  CYS26       0.0983
     14  SG       -27.0160  -16.7000   22.5450 S.3    26  CYS26      -0.0798
     15  N        -31.5070  -14.9240   17.5510 N.3    41  HIS41      -0.1241
     16  CA       -32.1140  -16.1620   18.0770 C.3    41  HIS41       0.1621
     17  C        -31.8340  -16.3080   19.5640 C.2    41  HIS41       0.2264
     18  O        -32.4000  -17.1820   20.2110 O.2    41  HIS41      -0.2867
     19  CB       -31.6130  -17.4100   17.3120 C.3    41  HIS41       0.0745
     20  CG       -30.1840  -17.7420   17.5930 C.ar   41  HIS41       0.0817
     21  ND1      -29.1650  -17.4260   16.7310 N.ar   41  HIS41      -0.2268
     22  CD2      -29.6040  -18.3490   18.6550 C.ar   41  HIS41       0.1154
     23  CE1      -28.0170  -17.8260   17.2430 C.ar   41  HIS41       0.1986
     24  NE2      -28.2550  -18.3870   18.4120 N.ar   41  HIS41      -0.2212
     25  N        -35.3210  -20.2460   12.8460 N.3    80  VAL80      -0.1231
     26  CA       -35.2260  -21.5690   12.2110 C.3    80  VAL80       0.1678
     27  C        -36.6080  -22.0000   11.6800 C.2    80  VAL80       0.2434
     28  O        -37.6540  -21.6400   12.2910 O.2    80  VAL80      -0.2733
     29  CB       -34.6570  -22.6580   13.1770 C.3    80  VAL80       0.0265
     30  CG1      -33.1790  -22.4180   13.4400 C.3    80  VAL80       0.0020
     31  CG2      -35.4770  -22.7140   14.4890 C.3    80  VAL80       0.0020
     32  N        -36.6340  -22.7480   10.5460 N.am   81  PRO81      -0.2718
     33  CA       -35.5370  -23.2910    9.7200 C.3    81  PRO81       0.1535
     34  C        -34.7060  -22.2970    8.9120 C.2    81  PRO81       0.2598
     35  O        -33.5130  -22.5290    8.7050 O.2    81  PRO81      -0.2715
     36  CB       -36.2520  -24.2520    8.7630 C.3    81  PRO81       0.0310
     37  CG       -37.6280  -23.7620    8.6700 C.3    81  PRO81       0.0237
     38  CD       -37.9530  -23.1580   10.0190 C.3    81  PRO81       0.0939
     39  N        -35.3210  -21.2120    8.4420 N.am   82  ALA82      -0.1964
     40  CA       -34.5700  -20.1760    7.7210 C.3    82  ALA82       0.1728
     41  C        -34.0740  -19.2560    8.7650 C.2    82  ALA82       0.2616
     42  O        -34.8790  -18.5630    9.3530 O.2    82  ALA82      -0.2715
     43  CB       -35.4930  -19.3940    6.8010 C.3    82  ALA82       0.0334
     44  N        -32.7790  -19.2110    9.0200 N.am   83  LEU83      -0.1963
     45  CA       -32.2950  -18.3160   10.0660 C.3    83  LEU83       0.1728
     46  C        -31.7830  -17.0300    9.4220 C.2    83  LEU83       0.2616
     47  O        -30.5640  -16.7680    9.4070 O.2    83  LEU83      -0.2715
     48  CB       -31.1620  -18.9730   10.8380 C.3    83  LEU83       0.0311
     49  CG       -31.3800  -19.3810   12.2700 C.3    83  LEU83       0.0022
     50  CD1      -30.1210  -20.1400   12.7990 C.3    83  LEU83       0.0001
     51  CD2      -31.6800  -18.0990   13.0350 C.3    83  LEU83       0.0001
     52  N        -32.6820  -16.2410    8.8580 N.am   84  GLU84      -0.1977
     53  CA       -32.2480  -15.0520    8.1240 C.3    84  GLU84       0.1602
     54  C        -32.1840  -13.8090    8.9840 C.2    84  GLU84       0.2287
     55  O        -33.0320  -13.6270    9.8520 O.2    84  GLU84      -0.2864
     56  CB       -33.1530  -14.8190    6.9200 C.3    84  GLU84       0.0415
     57  CG       -32.6950  -15.6110    5.7460 C.3    84  GLU84       0.1163
     58  CD       -33.7810  -15.8760    4.7540 C.2    84  GLU84       0.3649
     59  OE1      -34.8270  -15.1910    4.8000 O.co2  84  GLU84      -0.2457
     60  OE2      -33.5850  -16.7930    3.9240 O.co2  84  GLU84      -0.2457
     61  N        -23.8850  -26.8710    2.9030 N.3   157  TRP157     -0.1227
     62  CA       -25.1540  -26.1970    3.2620 C.3   157  TRP157      0.1737
     63  C        -26.2600  -26.2010    2.1860 C.2   157  TRP157      0.2595
     64  O        -27.2740  -25.5590    2.3750 O.2   157  TRP157     -0.2718
     65  CB       -24.9110  -24.7740    3.8040 C.3   157  TRP157      0.0564
     66  CG       -24.4080  -24.7870    5.2450 C.ar  157  TRP157      0.0003
     67  CD1      -23.1570  -24.4480    5.6750 C.ar  157  TRP157      0.0946
     68  CD2      -25.1280  -25.2230    6.4200 C.ar  157  TRP157      0.0152
     69  NE1      -23.0450  -24.6300    7.0370 N.ar  157  TRP157     -0.2442
     70  CE2      -24.2370  -25.1120    7.5210 C.ar  157  TRP157      0.0810
     71  CE3      -26.4440  -25.6920    6.6500 C.ar  157  TRP157      0.0012
     72  CZ2      -24.6230  -25.4390    8.8510 C.ar  157  TRP157      0.0191
     73  CZ3      -26.8420  -26.0080    7.9620 C.ar  157  TRP157      0.0001
     74  CH2      -25.9220  -25.8820    9.0540 C.ar  157  TRP157      0.0015
     75  N        -26.0330  -26.8970    1.0580 N.am  158  ASN158     -0.1974
     76  CA       -27.1440  -27.3190    0.2090 C.3   158  ASN158      0.1688
     77  C        -28.0160  -26.1200   -0.2560 C.2   158  ASN158      0.2292
     78  O        -29.2290  -26.1410   -0.1530 O.2   158  ASN158     -0.2864
     79  CB       -27.9370  -28.3950    0.9990 C.3   158  ASN158      0.1181
     80  CG       -28.9310  -29.1980    0.1480 C.2   158  ASN158      0.2629
     81  OD1      -30.0230  -29.5850    0.5900 O.2   158  ASN158     -0.2716
     82  ND2      -28.5430  -29.4380   -1.1090 N.am  158  ASN158     -0.0877
     83  N        -28.4870  -23.0940    0.9830 N.3   160  SER160     -0.1217
     84  CA       -29.2690  -22.3270    1.9490 C.3   160  SER160      0.1889
     85  C        -28.5610  -21.1150    2.5570 C.2   160  SER160      0.2288
     86  O        -29.1540  -20.4040    3.3710 O.2   160  SER160     -0.2866
     87  CB       -29.7560  -23.2440    3.0580 C.3   160  SER160      0.2089
     88  OG       -28.6700  -23.6180    3.8290 O.3   160  SER160     -0.2183
     89  N        -24.3300  -13.9950    4.5180 N.3   165  MET165     -0.1245
     90  CA       -23.7770  -14.9840    5.4600 C.3   165  MET165      0.1570
     91  C        -22.3270  -15.3170    5.1550 C.2   165  MET165      0.2261
     92  O        -21.9250  -15.3040    4.0050 O.2   165  MET165     -0.2867
     93  CB       -24.6360  -16.2360    5.4690 C.3   165  MET165      0.0387
     94  CG       -26.0330  -15.9950    6.0910 C.3   165  MET165      0.0595
     95  SD       -26.9020  -17.5720    5.8660 S.3   165  MET165     -0.1393
     96  CE       -28.5160  -17.1650    6.6080 C.3   165  MET165      0.0692
     97  N        -16.5780  -23.2790   16.7660 N.2   177  PRO177     -0.2571
     98  CA       -17.3990  -22.6820   17.8310 C.3   177  PRO177      0.2026
     99  C        -18.4740  -23.6940   18.2150 C.2   177  PRO177      0.2684
    100  O        -18.7530  -24.6310   17.4480 O.2   177  PRO177     -0.2709
    101  CB       -18.0330  -21.4660   17.1870 C.2   177  PRO177      0.0085
    102  CG       -17.7240  -21.5540   15.7180 C.2   177  PRO177      0.0180
    103  CD       -16.7280  -22.6210   15.4590 C.2   177  PRO177      0.0938
    104  N        -19.0370  -23.5850   19.4090 N.am  178  CYS178     -0.1949
    105  CA       -20.1120  -24.5210   19.7560 C.3   178  CYS178      0.1843
    106  C        -21.1730  -23.7590   20.6020 C.2   178  CYS178      0.2625
    107  O        -21.1430  -22.5410   20.6690 O.2   178  CYS178     -0.2714
    108  CB       -19.5140  -25.7670   20.4390 C.3   178  CYS178      0.0997
    109  SG       -20.5260  -27.2390   20.3500 S.3   178  CYS178     -0.0797
    110  N        -22.1050  -24.4600   21.2260 N.am  179  LYS179     -0.1963
    111  CA       -23.2350  -23.8140   21.8870 C.3   179  LYS179      0.1728
    112  C        -22.7750  -22.7860   22.9430 C.2   179  LYS179      0.2617
    113  O        -21.9730  -23.1000   23.8110 O.2   179  LYS179     -0.2715
    114  CB       -24.1480  -24.8850   22.4890 C.3   179  LYS179      0.0311
    115  CG       -25.5510  -24.4320   22.7980 C.3   179  LYS179      0.0038
    116  CD       -26.1660  -25.2550   23.9330 C.3   179  LYS179      0.0206
    117  CE       -27.6520  -24.8350   24.1050 C.3   179  LYS179      0.1093
    118  NZ       -28.3130  -25.5060   25.2860 N.3   179  LYS179     -0.1314
    119  N        -23.2910  -21.5540   22.8500 N.am  180  GLY180     -0.1940
    120  CA       -22.8810  -20.4550   23.7230 C.3   180  GLY180      0.2014
    121  C        -22.0400  -19.4520   22.9770 C.2   180  GLY180      0.2639
    122  O        -21.7840  -18.3590   23.4820 O.2   180  GLY180     -0.2714
    123  N        -21.6100  -19.8100   21.7570 N.am  181  ASP181     -0.1957
    124  CA       -20.6490  -19.0020   21.0000 C.3   181  ASP181      0.1840
    125  C        -21.3180  -18.0050   20.0520 C.2   181  ASP181      0.2622
    126  O        -20.6880  -16.9860   19.6710 O.2   181  ASP181     -0.2715
    127  CB       -19.6270  -19.8780   20.2470 C.3   181  ASP181      0.1450
    128  CG       -18.4790  -20.3530   21.1480 C.2   181  ASP181      0.3671
    129  OD1      -18.0860  -19.6280   22.0630 O.co2 181  ASP181     -0.2456
    130  OD2      -17.9780  -21.4690   20.9820 O.co2 181  ASP181     -0.2456
    131  N        -22.5670  -18.2960   19.6550 N.am  182  SER182     -0.1950
    132  CA       -23.3580  -17.3650   18.8150 C.3   182  SER182      0.1924
    133  C        -23.5290  -15.9850   19.4480 C.2   182  SER182      0.2314
    134  O        -23.5390  -15.8740   20.6790 O.2   182  SER182     -0.2863
    135  CB       -24.7280  -17.9370   18.4590 C.3   182  SER182      0.2116
    136  OG       -25.6320  -17.8400   19.5360 O.3   182  SER182     -0.2180
    137  N        -21.4750  -14.3670   14.8620 N.3   198  LEU198     -0.1231
    138  CA       -21.7630  -15.7850   14.7150 C.3   198  LEU198      0.1693
    139  C        -23.2420  -16.1260   14.8790 C.2   198  LEU198      0.2593
    140  O        -23.9180  -15.5420   15.7260 O.2   198  LEU198     -0.2718
    141  CB       -20.9050  -16.5640   15.6950 C.3   198  LEU198      0.0284
    142  CG       -19.5810  -16.6940   14.9460 C.3   198  LEU198      0.0019
    143  CD1      -18.4450  -15.7830   15.5390 C.3   198  LEU198      0.0001
    144  CD2      -19.2230  -18.1330   14.8100 C.3   198  LEU198      0.0001
    145  N        -23.7220  -17.0830   14.0780 N.am  199  SER199     -0.1938
    146  CA       -25.1470  -17.4220   14.0090 C.3   199  SER199      0.2055
    147  C        -25.4010  -18.9020   14.3350 C.2   199  SER199      0.2643
    148  O        -26.0020  -19.2230   15.3570 O.2   199  SER199     -0.2714
    149  CB       -25.7200  -17.0310   12.6120 C.3   199  SER199      0.2130
    150  OG       -27.1240  -17.3020   12.4740 O.3   199  SER199     -0.2179
    151  N        -24.9140  -19.8060   13.4780 N.am  200  PHE200     -0.1959
    152  CA       -25.3140  -21.2230   13.4920 C.3   200  PHE200      0.1771
    153  C        -24.3090  -22.2140   12.9020 C.2   200  PHE200      0.2620
    154  O        -23.4040  -21.8380   12.1490 O.2   200  PHE200     -0.2715
    155  CB       -26.6740  -21.4160   12.7660 C.3   200  PHE200      0.0574
    156  CG       -26.6300  -21.2060   11.2650 C.ar  200  PHE200     -0.0200
    157  CD1      -26.9830  -19.9740   10.7100 C.ar  200  PHE200     -0.0042
    158  CD2      -26.2700  -22.2530   10.4060 C.ar  200  PHE200     -0.0042
    159  CE1      -26.9520  -19.7630    9.3090 C.ar  200  PHE200     -0.0003
    160  CE2      -26.2300  -22.0830    8.9970 C.ar  200  PHE200     -0.0003
    161  CZ       -26.5890  -20.8370    8.4310 C.ar  200  PHE200     -0.0000
    162  N        -24.4950  -23.4920   13.2540 N.am  201  SER201     -0.1936
    163  CA       -23.8010  -24.6070   12.6160 C.3   201  SER201      0.2055
    164  C        -24.8530  -25.7160   12.4380 C.2   201  SER201      0.2644
    165  O        -26.0420  -25.4100   12.2220 O.2   201  SER201     -0.2714
    166  CB       -22.5960  -25.0920   13.4800 C.3   201  SER201      0.2130
    167  OG       -23.0440  -25.6970   14.7200 O.3   201  SER201     -0.2179
    168  N        -24.4400  -26.9870   12.5490 N.am  202  SER202     -0.1935
    169  CA       -25.3990  -28.0920   12.6300 C.3   202  SER202      0.2055
    170  C        -25.3460  -28.5890   14.0740 C.2   202  SER202      0.2642
    171  O        -24.5600  -28.0530   14.8770 O.2   202  SER202     -0.2714
    172  CB       -25.0680  -29.2180   11.6350 C.3   202  SER202      0.2130
    173  OG       -23.8280  -29.8480   11.9780 O.3   202  SER202     -0.2179
    174  N        -26.1670  -29.5890   14.4160 N.am  203  ARG203     -0.1977
    175  CA       -26.2240  -30.0580   15.8130 C.3   203  ARG203      0.1597
    176  C        -24.8310  -30.4870   16.3350 C.2   203  ARG203      0.2287
    177  O        -24.4890  -30.2730   17.4950 O.2   203  ARG203     -0.2864
    178  CB       -27.2870  -31.1810   15.9770 C.3   203  ARG203      0.0334
    179  CG       -27.6920  -31.3870   17.4480 C.3   203  ARG203      0.0492
    180  CD       -28.5370  -32.6340   17.6450 C.3   203  ARG203      0.2205
    181  NE       -27.7930  -33.8520   17.3010 N.pl3 203  ARG203     -0.0865
    182  CZ       -26.8500  -34.4110   18.0620 C.cat 203  ARG203      0.5346
    183  NH1      -26.5040  -33.8650   19.2240 N.pl3 203  ARG203      0.1354
    184  NH2      -26.2450  -35.5190   17.6540 N.pl3 203  ARG203      0.1354
    185  N        -20.9920  -29.7440   16.3900 N.3   205  CYS205     -0.1235
    186  CA       -20.2130  -28.5380   16.1690 C.3   205  CYS205      0.1677
    187  C        -19.0650  -28.6560   15.1860 C.2   205  CYS205      0.2270
    188  O        -18.8430  -27.7430   14.3840 O.2   205  CYS205     -0.2867
    189  CB       -19.7590  -27.9470   17.4960 C.3   205  CYS205      0.0956
    190  SG       -21.2130  -27.3630   18.4280 S.3   205  CYS205     -0.0801
    191  N        -20.9260  -29.2580    7.6670 N.3   210  LYS210     -0.1245
    192  CA       -21.7530  -28.1290    8.0930 C.3   210  LYS210      0.1561
    193  C        -20.8940  -27.0730    8.7890 C.2   210  LYS210      0.2260
    194  O        -20.9480  -26.9220   10.0340 O.2   210  LYS210     -0.2867
    195  CB       -22.9230  -28.5840    8.9970 C.3   210  LYS210      0.0271
    196  CG       -23.9190  -29.6120    8.3460 C.3   210  LYS210      0.0035
    197  CD       -24.7500  -28.9560    7.2120 C.3   210  LYS210      0.0206
    198  CE       -25.3630  -29.9770    6.2240 C.3   210  LYS210      0.1093
    199  NZ       -24.3620  -30.8250    5.4280 N.3   210  LYS210     -0.1314
    200  N        -19.4270  -23.6660   10.3760 N.3   212  PRO212     -0.2116
    201  CA       -20.0920  -22.5730   11.0930 C.3   212  PRO212      0.1372
    202  C        -20.3070  -21.3620   10.1840 C.2   212  PRO212      0.2244
    203  O        -19.5340  -21.1420    9.2500 O.2   212  PRO212     -0.2868
    204  CB       -19.0880  -22.2150   12.1960 C.3   212  PRO212      0.0268
    205  CG       -17.7540  -22.7530   11.6940 C.3   212  PRO212      0.0207
    206  CD       -18.1210  -24.0140   10.9740 C.3   212  PRO212      0.0892
@<TRIPOS>BOND
     1    82    80   am
     2    77    78    2
     3    77    76    1
     4    80    81    2
     5    80    79    1
     6    76    79    1
     7    76    75    1
     8    83    84    1
     9    75    63   am
    10    84    85    1
    11    84    87    1
    12    63    64    2
    13    63    62    1
    14    85    86    2
    15    61    62    1
    16    87    88    1
    17    62    65    1
    18    65    66    1
    19    60    58   ar
    20    92    91    2
    21    89    90    1
    22    58    59   ar
    23    58    57    1
    24    91    90    1
    25    66    67   ar
    26    66    68   ar
    27   199   198    1
    28    90    93    1
    29    93    94    1
    30    67    69   ar
    31    57    56    1
    32    95    94    1
    33    95    96    1
    34   198   197    1
    35    68    71   ar
    36    68    70   ar
    37    71    73   ar
    38    43    40    1
    39    56    53    1
    40    69    70   ar
    41   197   196    1
    42    70    72   ar
    43   191   192    1
    44    40    39    1
    45    40    41    1
    46    73    74   ar
    47   192   193    1
    48   192   195    1
    49    53    52    1
    50    53    54    1
    51   196   195    1
    52   161   160   ar
    53   161   159   ar
    54    39    34   am
    55    37    36    1
    56    37    38    1
    57    35    34    2
    58    36    33    1
    59    41    44   am
    60    41    42    2
    61   193   194    2
    62    72    74   ar
    63    52    46   am
    64    34    33    1
    65    54    55    2
    66   160   158   ar
    67    44    45    1
    68   203   202    2
    69   159   157   ar
    70    47    46    2
    71    46    45    1
    72    33    32    1
    73    38    32    1
    74    45    48    1
    75   202   201    1
    76   200   206    1
    77   200   201    1
    78   158   156   ar
    79    32    27   am
    80   157   156   ar
    81    48    49    1
    82   206   205    1
    83   201   204    1
    84   156   155    1
    85   172   173    1
    86   172   169    1
    87    27    26    1
    88    27    28    2
    89   205   204    1
    90   154   153    2
    91    26    25    1
    92    26    29    1
    93   165   164    2
    94    49    50    1
    95    49    51    1
    96   164   168   am
    97   164   163    1
    98   150   149    1
    99   168   169    1
   100   149   146    1
   101   163   162    1
   102   163   166    1
   103   169   170    1
   104   155   152    1
   105   153   162   am
   106   153   152    1
   107    29    30    1
   108    29    31    1
   109   151   152    1
   110   151   147   am
   111   166   167    1
   112   146   145    1
   113   146   147    1
   114   170   174   am
   115   170   171    2
   116   145   139   am
   117   147   148    2
   118   188   187    2
   119   174   175    1
   120   138   137    1
   121   138   139    1
   122   138   141    1
   123   144   142    1
   124   139   140    2
   125   142   143    1
   126   142   141    1
   127   187   186    1
   128   103   102    1
   129   103    97    2
   130   102   101    2
   131   175   178    1
   132   175   176    1
   133   178   179    1
   134   186   185    1
   135   186   189    1
   136   176   177    2
   137    21    23   ar
   138    21    20   ar
   139    97    98    1
   140   101    98    1
   141    23    24   ar
   142   181   180    1
   143   181   182    2
   144    19    20    1
   145    19    16    1
   146   100    99    2
   147   179   180    1
   148   189   190    1
   149    15    16    1
   150    20    22   ar
   151   184   182    1
   152    98    99    1
   153   182   183    1
   154    16    17    1
   155    99   104   am
   156    24    22   ar
   157   190   109    1
   158   135   132    1
   159   135   136    1
   160   132   133    1
   161   132   131    1
   162   104   105    1
   163   133   134    2
   164    17    18    2
   165   131   125   am
   166   126   125    2
   167   105   108    1
   168   105   106    1
   169   125   124    1
   170   127   124    1
   171   127   128    1
   172   109   108    1
   173   106   107    2
   174   106   110   am
   175   130   128   ar
   176   124   123    1
   177   128   129   ar
   178   110   111    1
   179   123   121   am
   180   111   114    1
   181   111   112    1
   182   114   115    1
   183    14    13    1
   184   115   116    1
   185   119   112   am
   186   119   120    1
   187   112   113    2
   188   121   122    2
   189   121   120    1
   190    13    10    1
   191   116   117    1
   192    10    11    1
   193    10     9    1
   194   117   118    1
   195    11    12    2
   196     4     3    2
   197     9     3   am
   198     8     6    1
   199     3     2    1
   200     2     5    1
   201     2     1    1
   202     6     5    1
   203     6     7    1
