@<TRIPOS>MOLECULE
tmp/2zgiA01.pdb
 89 86 0 0 0
SMALL
GASTEIGER

@<TRIPOS>ATOM
      1  N          1.6970   -2.0520   41.5900 N.3   155  HIS155     -0.1241
      2  CA         1.4310   -2.4690   42.9680 C.3   155  HIS155      0.1621
      3  C          0.4280   -3.6180   42.9230 C.2   155  HIS155      0.2264
      4  O         -0.4540   -3.6270   42.0750 O.2   155  HIS155     -0.2867
      5  CB         0.7800   -1.3660   43.8430 C.3   155  HIS155      0.0745
      6  CG         1.5160   -0.0600   43.8770 C.ar  155  HIS155      0.0817
      7  ND1        2.7550    0.0920   44.4560 N.ar  155  HIS155     -0.2268
      8  CD2        1.1640    1.1650   43.4220 C.ar  155  HIS155      0.1154
      9  CE1        3.1470    1.3470   44.3360 C.ar  155  HIS155      0.1986
     10  NE2        2.1990    2.0230   43.7150 N.ar  155  HIS155     -0.2212
     11  N          4.3790  -10.0280   58.3530 N.3   168  ARG168     -0.1245
     12  CA         5.8460   -9.9970   58.2240 C.3   168  ARG168      0.1563
     13  C          6.4020   -9.1800   59.3830 C.2   168  ARG168      0.2260
     14  O          5.7450   -8.2580   59.8450 O.2   168  ARG168     -0.2867
     15  CB         6.2870   -9.3530   56.9020 C.3   168  ARG168      0.0307
     16  CG         7.8240   -9.3800   56.6990 C.3   168  ARG168      0.0489
     17  CD         8.3050   -8.6730   55.4200 C.3   168  ARG168      0.2205
     18  NE         7.9170   -7.2670   55.3620 N.pl3 168  ARG168     -0.0865
     19  CZ         7.7010   -6.6040   54.2270 C.cat 168  ARG168      0.5346
     20  NH1        7.8310   -7.2230   53.0550 N.pl3 168  ARG168      0.1354
     21  NH2        7.3450   -5.3210   54.2580 N.pl3 168  ARG168      0.1354
     22  N          0.0510   -6.3360   57.8300 N.3   173  TYR173     -0.1241
     23  CA        -0.1390   -5.2490   56.8770 C.3   173  TYR173      0.1605
     24  C         -1.3900   -5.4510   56.0530 C.2   173  TYR173      0.2264
     25  O         -1.6680   -6.5680   55.5700 O.2   173  TYR173     -0.2867
     26  CB         1.0190   -5.1830   55.9070 C.3   173  TYR173      0.0534
     27  CG         2.3340   -4.8370   56.5270 C.ar  173  TYR173     -0.0201
     28  CD1        2.7460   -3.5190   56.6310 C.ar  173  TYR173     -0.0009
     29  CD2        3.1850   -5.8320   56.9650 C.ar  173  TYR173     -0.0009
     30  CE1        3.9920   -3.1940   57.1800 C.ar  173  TYR173      0.0417
     31  CE2        4.4270   -5.5280   57.5250 C.ar  173  TYR173      0.0417
     32  CZ         4.8180   -4.2050   57.6310 C.ar  173  TYR173      0.1957
     33  OH         6.0330   -3.9130   58.1940 O.3   173  TYR173     -0.2866
     34  N         -0.7350   -2.2930   60.3300 N.3   199  GLU199     -0.1245
     35  CA        -0.3120   -1.1360   59.5570 C.3   199  GLU199      0.1567
     36  C         -0.8390   -1.3160   58.1420 C.2   199  GLU199      0.2260
     37  O         -1.2150   -2.4140   57.7530 O.2   199  GLU199     -0.2867
     38  CB         1.2250   -1.1040   59.5430 C.3   199  GLU199      0.0388
     39  CG         1.9150    0.2330   59.3470 C.3   199  GLU199      0.1160
     40  CD         3.4590    0.1130   59.4660 C.2   199  GLU199      0.3649
     41  OE1        3.9410   -0.4160   60.4920 O.co2 199  GLU199     -0.2457
     42  OE2        4.1790    0.5230   58.5240 O.co2 199  GLU199     -0.2457
     43  N          0.0820   -0.4300   53.9770 N.3   201  GLY201     -0.1210
     44  CA         1.1830   -0.1450   53.0790 C.3   201  GLY201      0.1956
     45  C          0.8310   -0.4620   51.6430 C.2   201  GLY201      0.2612
     46  O         -0.0520   -1.2850   51.3740 O.2   201  GLY201     -0.2717
     47  N          1.5280    0.2050   50.7380 N.am  202  LEU202     -0.1965
     48  CA         1.4490   -0.0430   49.3210 C.3   202  LEU202      0.1728
     49  C          2.5750   -0.9790   48.9330 C.2   202  LEU202      0.2616
     50  O          3.7620   -0.6620   49.1590 O.2   202  LEU202     -0.2715
     51  CB         1.5950    1.2900   48.6150 C.3   202  LEU202      0.0311
     52  CG         0.9300    1.5730   47.2850 C.3   202  LEU202      0.0022
     53  CD1       -0.4720    0.9870   47.2090 C.3   202  LEU202      0.0001
     54  CD2        0.9400    3.1000   47.1480 C.3   202  LEU202      0.0001
     55  N          2.2140   -2.1460   48.3960 N.am  203  PHE203     -0.1960
     56  CA         3.1830   -3.2140   48.1250 C.3   203  PHE203      0.1771
     57  C          3.2980   -3.5540   46.6490 C.2   203  PHE203      0.2619
     58  O          2.3160   -3.5520   45.9180 O.2   203  PHE203     -0.2715
     59  CB         2.8170   -4.5060   48.8790 C.3   203  PHE203      0.0574
     60  CG         2.9860   -4.4170   50.3730 C.ar  203  PHE203     -0.0200
     61  CD1        4.1680   -4.8650   50.9860 C.ar  203  PHE203     -0.0042
     62  CD2        1.9670   -3.8770   51.1690 C.ar  203  PHE203     -0.0042
     63  CE1        4.3270   -4.7590   52.3610 C.ar  203  PHE203     -0.0003
     64  CE2        2.1080   -3.7740   52.5450 C.ar  203  PHE203     -0.0003
     65  CZ         3.2940   -4.2250   53.1430 C.ar  203  PHE203     -0.0000
     66  N          4.5170   -3.8750   46.2350 N.am  204  ARG204     -0.1977
     67  CA         4.7530   -4.4870   44.9490 C.3   204  ARG204      0.1597
     68  C          4.9830   -5.9790   45.1460 C.2   204  ARG204      0.2287
     69  O          5.2420   -6.4120   46.2730 O.2   204  ARG204     -0.2864
     70  CB         5.9610   -3.8590   44.2730 C.3   204  ARG204      0.0334
     71  CG         5.8240   -2.3780   44.0450 C.3   204  ARG204      0.0492
     72  CD         7.0700   -1.8400   43.3660 C.3   204  ARG204      0.2205
     73  NE         7.1530   -2.3440   42.0020 N.pl3 204  ARG204     -0.0865
     74  CZ         6.5750   -1.7760   40.9480 C.cat 204  ARG204      0.5346
     75  NH1        5.8760   -0.6380   41.0800 N.pl3 204  ARG204      0.1354
     76  NH2        6.7250   -2.3430   39.7520 N.pl3 204  ARG204      0.1354
     77  N          7.4310   -7.8330   44.6960 N.3   206  GLU206     -0.1231
     78  CA         8.7270   -8.1330   45.3090 C.3   206  GLU206      0.1699
     79  C          8.7350   -7.8160   46.7740 C.2   206  GLU206      0.2592
     80  O          9.6150   -8.2840   47.4830 O.2   206  GLU206     -0.2718
     81  CB         9.8850   -7.3730   44.6550 C.3   206  GLU206      0.0402
     82  CG         9.7390   -7.1750   43.1660 C.3   206  GLU206      0.1161
     83  CD         8.8150   -6.0120   42.8210 C.2   206  GLU206      0.3649
     84  OE1        9.0920   -4.8660   43.2440 O.co2 206  GLU206     -0.2457
     85  OE2        7.8170   -6.2520   42.1150 O.co2 206  GLU206     -0.2457
     86  N          7.7860   -6.9970   47.2320 N.am  207  GLY207     -0.1957
     87  CA         7.6870   -6.6950   48.6520 C.3   207  GLY207      0.1869
     88  C          6.8180   -7.6660   49.4450 C.2   207  GLY207      0.2309
     89  O          6.5880   -7.4510   50.6230 O.2   207  GLY207     -0.2863
@<TRIPOS>BOND
     1    76    74    1
     2    74    75    1
     3    74    73    2
     4     1     2    1
     5    73    72    1
     6     4     3    2
     7    85    83   ar
     8    83    82    1
     9    83    84   ar
    10     3     2    1
    11     2     5    1
    12    82    81    1
    13    72    71    1
    14     8    10   ar
    15     8     6   ar
    16    10     9   ar
    17     5     6    1
    18     6     7   ar
    19    71    70    1
    20    70    67    1
    21     9     7   ar
    22    81    78    1
    23    77    78    1
    24    67    68    1
    25    67    66    1
    26    68    69    2
    27    78    79    1
    28    58    57    2
    29    66    57   am
    30    57    56    1
    31    79    86   am
    32    79    80    2
    33    54    52    1
    34    53    52    1
    35    86    87    1
    36    52    51    1
    37    56    55    1
    38    56    59    1
    39    55    49   am
    40    51    48    1
    41    87    88    1
    42    59    60    1
    43    49    50    2
    44    49    48    1
    45    48    47    1
    46    88    89    2
    47    60    61   ar
    48    60    62   ar
    49    47    45   am
    50    61    63   ar
    51    62    64   ar
    52    46    45    2
    53    45    44    1
    54    63    65   ar
    55    64    65   ar
    56    20    19    1
    57    44    43    1
    58    19    21    1
    59    19    18    2
    60    18    17    1
    61    17    16    1
    62    25    24    2
    63    26    27    1
    64    26    23    1
    65    24    23    1
    66    27    28   ar
    67    27    29   ar
    68    28    30   ar
    69    16    15    1
    70    23    22    1
    71    15    12    1
    72    29    31   ar
    73    30    32   ar
    74    31    32   ar
    75    32    33    1
    76    37    36    2
    77    36    35    1
    78    12    11    1
    79    12    13    1
    80    42    40   ar
    81    39    40    1
    82    39    38    1
    83    13    14    2
    84    40    41   ar
    85    38    35    1
    86    35    34    1
