@<TRIPOS>MOLECULE
tmp/2zgiD00.pdb
 146 139 0 0 0
SMALL
GASTEIGER

@<TRIPOS>ATOM
      1  N        -22.0400   -3.6300   17.2690 N.3    26  THR26      -0.1218
      2  CA       -23.2250   -2.9400   16.8070 C.3    26  THR26       0.1862
      3  C        -23.0360   -2.5260   15.3460 C.2    26  THR26       0.2287
      4  O        -22.0020   -1.9430   14.9720 O.2    26  THR26      -0.2866
      5  CB       -23.6010   -1.7340   17.7020 C.3    26  THR26       0.1770
      6  OG1      -22.7030   -0.6550   17.4570 O.3    26  THR26      -0.2211
      7  CG2      -23.5120   -2.0830   19.1310 C.3    26  THR26       0.0375
      8  N        -14.6000   -9.7310   14.1070 N.3    43  ARG43      -0.1245
      9  CA       -14.2140   -9.0760   15.3660 C.3    43  ARG43       0.1563
     10  C        -14.8700   -9.7140   16.5920 C.2    43  ARG43       0.2260
     11  O        -14.2020   -9.9630   17.5980 O.2    43  ARG43      -0.2867
     12  CB       -14.5350   -7.5830   15.3350 C.3    43  ARG43       0.0307
     13  CG       -14.0480   -6.8680   16.6200 C.3    43  ARG43       0.0489
     14  CD       -14.1390   -5.3580   16.5130 C.3    43  ARG43       0.2205
     15  NE       -15.5320   -4.9400   16.6000 N.pl3  43  ARG43      -0.0865
     16  CZ       -15.9560   -3.6860   16.4650 C.cat  43  ARG43       0.5346
     17  NH1      -15.0820   -2.6870   16.2300 N.pl3  43  ARG43       0.1354
     18  NH2      -17.2630   -3.4400   16.5440 N.pl3  43  ARG43       0.1354
     19  N        -14.5230   -5.0050   22.7830 N.3   125  LYS125     -0.1245
     20  CA       -15.8370   -4.3880   22.9050 C.3   125  LYS125      0.1561
     21  C        -16.6460   -5.2400   23.8890 C.2   125  LYS125      0.2260
     22  O        -17.2820   -6.2390   23.4920 O.2   125  LYS125     -0.2867
     23  CB       -16.4840   -4.3310   21.5270 C.3   125  LYS125      0.0271
     24  CG       -17.3850   -3.1230   21.3150 C.3   125  LYS125      0.0035
     25  CD       -17.6780   -2.9210   19.8570 C.3   125  LYS125      0.0206
     26  CE       -18.9680   -2.1620   19.6800 C.3   125  LYS125      0.1093
     27  NZ       -18.7350   -0.7440   20.0900 N.3   125  LYS125     -0.1314
     28  N        -18.6280   -1.5450   30.4050 N.3   129  TYR129     -0.1241
     29  CA       -18.7530   -0.3700   29.5520 C.3   129  TYR129      0.1605
     30  C        -19.0050    0.8990   30.3990 C.2   129  TYR129      0.2264
     31  O        -19.2760    1.9530   29.8730 O.2   129  TYR129     -0.2867
     32  CB       -19.9130   -0.6130   28.5610 C.3   129  TYR129      0.0534
     33  CG       -20.0370    0.3800   27.4530 C.ar  129  TYR129     -0.0201
     34  CD1      -19.1080    0.4190   26.4180 C.ar  129  TYR129     -0.0009
     35  CD2      -21.1000    1.2850   27.4370 C.ar  129  TYR129     -0.0009
     36  CE1      -19.2190    1.3490   25.3810 C.ar  129  TYR129      0.0417
     37  CE2      -21.2190    2.2230   26.4100 C.ar  129  TYR129      0.0417
     38  CZ       -20.2770    2.2470   25.3910 C.ar  129  TYR129      0.1957
     39  OH       -20.3890    3.1920   24.3920 O.3   129  TYR129     -0.2866
     40  N        -17.0570    4.2660   29.6630 N.3   132  TYR132     -0.1241
     41  CA       -17.5620    4.8710   28.4400 C.3   132  TYR132      0.1605
     42  C        -18.8960    5.5520   28.7110 C.2   132  TYR132      0.2264
     43  O        -19.1330    6.6650   28.2610 O.2   132  TYR132     -0.2867
     44  CB       -17.6930    3.8250   27.3210 C.3   132  TYR132      0.0534
     45  CG       -16.3920    3.0790   27.1070 C.ar  132  TYR132     -0.0201
     46  CD1      -15.3790    3.6060   26.2890 C.ar  132  TYR132     -0.0009
     47  CD2      -16.1560    1.8710   27.7560 C.ar  132  TYR132     -0.0009
     48  CE1      -14.1530    2.9100   26.1340 C.ar  132  TYR132      0.0417
     49  CE2      -14.9640    1.1990   27.6140 C.ar  132  TYR132      0.0417
     50  CZ       -13.9750    1.7030   26.7890 C.ar  132  TYR132      0.1957
     51  OH       -12.8090    0.9760   26.6710 O.3   132  TYR132     -0.2866
     52  N         -9.6710    6.9530   23.0520 N.3   158  ASP158     -0.1225
     53  CA       -10.9650    6.4840   22.5560 C.3   158  ASP158      0.1805
     54  C        -12.0250    7.5380   22.7870 C.2   158  ASP158      0.2598
     55  O        -11.8370    8.4960   23.5950 O.2   158  ASP158     -0.2718
     56  CB       -11.3630    5.1430   23.2180 C.3   158  ASP158      0.1424
     57  CG       -11.8920    4.0910   22.2130 C.2   158  ASP158      0.3668
     58  OD1      -12.4820    4.4790   21.1800 O.co2 158  ASP158     -0.2456
     59  OD2      -11.7310    2.8590   22.4760 O.co2 158  ASP158     -0.2456
     60  N        -13.1130    7.3950   22.0330 N.am  159  GLY159     -0.1942
     61  CA       -14.3790    8.0590   22.3480 C.3   159  GLY159      0.2014
     62  C        -15.2640    7.0660   23.0820 C.2   159  GLY159      0.2640
     63  O        -14.9600    5.8770   23.0990 O.2   159  GLY159     -0.2714
     64  N        -16.3580    7.5190   23.6890 N.am  160  SER160     -0.1935
     65  CA       -17.2630    6.5750   24.3790 C.3   160  SER160      0.2055
     66  C        -17.9110    5.5260   23.4260 C.2   160  SER160      0.2643
     67  O        -18.1090    4.3680   23.8140 O.2   160  SER160     -0.2714
     68  CB       -18.3510    7.3280   25.1640 C.3   160  SER160      0.2130
     69  OG       -19.4230    7.6770   24.2960 O.3   160  SER160     -0.2179
     70  N        -18.2190    5.9300   22.1910 N.am  161  ARG161     -0.1963
     71  CA       -18.7690    4.9940   21.2020 C.3   161  ARG161      0.1729
     72  C        -18.2870    5.2610   19.7880 C.2   161  ARG161      0.2617
     73  O        -18.7950    4.6710   18.8270 O.2   161  ARG161     -0.2715
     74  CB       -20.2980    4.9470   21.2580 C.3   161  ARG161      0.0348
     75  CG       -20.9650    6.2630   21.5820 C.3   161  ARG161      0.0492
     76  CD       -21.0840    7.1790   20.3640 C.3   161  ARG161      0.2205
     77  NE       -22.3210    7.9780   20.4440 N.pl3 161  ARG161     -0.0865
     78  CZ       -22.3950    9.2440   20.8690 C.cat 161  ARG161      0.5346
     79  NH1      -21.3020    9.9150   21.2620 N.pl3 161  ARG161      0.1354
     80  NH2      -23.5810    9.8380   20.9100 N.pl3 161  ARG161      0.1354
     81  N        -17.3010    6.1530   19.6620 N.am  162  THR162     -0.1937
     82  CA       -16.6830    6.4410   18.3760 C.3   162  THR162      0.2028
     83  C        -15.1590    6.3880   18.5150 C.2   162  THR162      0.2642
     84  O        -14.6280    6.4610   19.6220 O.2   162  THR162     -0.2714
     85  CB       -17.1090    7.8190   17.8090 C.3   162  THR162      0.1808
     86  OG1      -16.7440    8.8510   18.7440 O.3   162  THR162     -0.2208
     87  CG2      -18.6410    7.8550   17.5130 C.3   162  THR162      0.0379
     88  N        -14.4840    6.2600   17.3830 N.am  163  SER163     -0.1949
     89  CA       -13.0300    6.1170   17.3300 C.3   163  SER163      0.1924
     90  C        -12.4500    7.4520   16.8440 C.2   163  SER163      0.2314
     91  O        -12.8190    7.9340   15.7730 O.2   163  SER163     -0.2863
     92  CB       -12.6440    5.0290   16.3330 C.3   163  SER163      0.2116
     93  OG       -13.2000    3.7750   16.6740 O.3   163  SER163     -0.2180
     94  N        -10.2590    0.7730   21.2360 N.3   179  LEU179     -0.1245
     95  CA       -10.8260   -0.2630   20.3760 C.3   179  LEU179      0.1561
     96  C        -10.3730   -0.0370   18.9370 C.2   179  LEU179      0.2260
     97  O        -10.4300    1.0870   18.4470 O.2   179  LEU179     -0.2867
     98  CB       -12.3610   -0.1930   20.4710 C.3   179  LEU179      0.0270
     99  CG       -13.1850   -1.0660   19.5080 C.3   179  LEU179      0.0019
    100  CD1      -12.8310   -2.5290   19.6620 C.3   179  LEU179      0.0001
    101  CD2      -14.6420   -0.8490   19.7620 C.3   179  LEU179      0.0001
    102  N        -11.7700    0.0760   16.0280 N.3   181  GLY181     -0.1210
    103  CA       -13.0260    0.2170   15.3650 C.3   181  GLY181      0.1956
    104  C        -12.9270   -0.2290   13.9160 C.2   181  GLY181      0.2612
    105  O        -11.9010   -0.0270   13.2310 O.2   181  GLY181     -0.2717
    106  N        -14.0160   -0.8340   13.4620 N.am  182  ILE182     -0.1965
    107  CA       -14.1590   -1.2690   12.0910 C.3   182  ILE182      0.1727
    108  C        -14.2810   -0.0490   11.1810 C.2   182  ILE182      0.2617
    109  O        -13.6490   -0.0100   10.1240 O.2   182  ILE182     -0.2715
    110  CB       -15.3710   -2.2440   11.9690 C.3   182  ILE182      0.0290
    111  CG1      -14.9830   -3.5960   12.5780 C.3   182  ILE182      0.0022
    112  CG2      -15.8470   -2.4000   10.5080 C.3   182  ILE182      0.0023
    113  CD1      -16.1530   -4.4310   13.0860 C.3   182  ILE182      0.0001
    114  N        -15.0820    0.9450   11.5840 N.am  183  THR183     -0.1937
    115  CA       -15.2950    2.1310   10.7580 C.3   183  THR183      0.2028
    116  C        -13.9780    2.8480   10.5150 C.2   183  THR183      0.2642
    117  O        -13.6640    3.1830    9.3810 O.2   183  THR183     -0.2714
    118  CB       -16.3530    3.0990   11.3420 C.3   183  THR183      0.1808
    119  OG1      -17.5450    2.3600   11.6440 O.3   183  THR183     -0.2208
    120  CG2      -16.6970    4.1660   10.3440 C.3   183  THR183      0.0379
    121  N        -13.1910    3.0290   11.5700 N.am  184  ARG184     -0.1977
    122  CA       -11.9060    3.7110   11.4420 C.3   184  ARG184      0.1597
    123  C        -11.0030    3.0620   10.3770 C.2   184  ARG184      0.2287
    124  O        -10.4720    3.7420    9.4820 O.2   184  ARG184     -0.2864
    125  CB       -11.1890    3.7430   12.7840 C.3   184  ARG184      0.0334
    126  CG        -9.9730    4.6340   12.7270 C.3   184  ARG184      0.0492
    127  CD        -9.6260    5.2050   14.0860 C.3   184  ARG184      0.2205
    128  NE        -9.3260    4.1630   15.0650 N.pl3 184  ARG184     -0.0865
    129  CZ        -8.9260    4.4240   16.2990 C.cat 184  ARG184      0.5346
    130  NH1       -8.7660    5.6940   16.6890 N.pl3 184  ARG184      0.1354
    131  NH2       -8.6650    3.4160   17.1330 N.pl3 184  ARG184      0.1354
    132  N        -15.2220    8.2510   14.0870 N.3   215  ALA215     -0.1231
    133  CA       -15.7210    7.1810   13.2420 C.3   215  ALA215      0.1694
    134  C        -16.4370    6.1550   14.1140 C.2   215  ALA215      0.2593
    135  O        -15.9620    5.8330   15.1830 O.2   215  ALA215     -0.2718
    136  CB       -14.5700    6.5270   12.5160 C.3   215  ALA215      0.0304
    137  N        -17.5700    5.6320   13.6440 N.am  216  GLY216     -0.1942
    138  CA       -18.2490    4.5290   14.3240 C.3   216  GLY216      0.2014
    139  C        -19.3960    3.9610   13.4830 C.2   216  GLY216      0.2639
    140  O        -19.8800    4.6050   12.5480 O.2   216  GLY216     -0.2714
    141  N        -19.8290    2.7540   13.8270 N.am  217  SER217     -0.1949
    142  CA       -20.8820    2.0650   13.0620 C.3   217  SER217      0.1924
    143  C        -22.2200    2.7830   13.0920 C.2   217  SER217      0.2314
    144  O        -22.9970    2.6680   12.1390 O.2   217  SER217     -0.2863
    145  CB       -21.0720    0.6520   13.5900 C.3   217  SER217      0.2116
    146  OG       -19.9330   -0.1040   13.2350 O.3   217  SER217     -0.2180
@<TRIPOS>BOND
     1   117   116    2
     2   124   123    2
     3   109   108    2
     4   120   118    1
     5   123   122    1
     6   112   110    1
     7   116   115    1
     8   116   121   am
     9   115   118    1
    10   115   114    1
    11   108   114   am
    12   108   107    1
    13   118   119    1
    14   122   121    1
    15   122   125    1
    16   110   107    1
    17   110   111    1
    18   107   106    1
    19   144   143    2
    20   136   133    1
    21   140   139    2
    22   111   113    1
    23   126   125    1
    24   126   127    1
    25   142   143    1
    26   142   145    1
    27   142   141    1
    28   105   104    2
    29   146   145    1
    30   133   132    1
    31   133   134    1
    32   106   104   am
    33   139   141   am
    34   139   138    1
    35   137   134   am
    36   137   138    1
    37   104   103    1
    38   127   128    1
    39     8     9    1
    40   134   135    2
    41     4     3    2
    42   128   129    2
    43    12     9    1
    44    12    13    1
    45     3     2    1
    46   103   102    1
    47     9    10    1
    48    91    90    2
    49    17    16    1
    50   129   130    1
    51   129   131    1
    52    92    93    1
    53    92    89    1
    54    16    18    1
    55    16    15    2
    56    14    15    1
    57    14    13    1
    58    10    11    2
    59     2     1    1
    60     2     5    1
    61    90    89    1
    62    89    88    1
    63    88    83   am
    64     6     5    1
    65    87    85    1
    66     5     7    1
    67    85    82    1
    68    85    86    1
    69    82    83    1
    70    82    81    1
    71    97    96    2
    72    83    84    2
    73    73    72    2
    74    96    95    1
    75    99   100    1
    76    99   101    1
    77    99    98    1
    78    81    72   am
    79    26    25    1
    80    26    27    1
    81    72    71    1
    82    25    24    1
    83    76    77    1
    84    76    75    1
    85    95    98    1
    86    95    94    1
    87    77    78    2
    88    78    80    1
    89    78    79    1
    90    58    57   ar
    91    71    74    1
    92    71    70    1
    93    74    75    1
    94    24    23    1
    95    23    20    1
    96    60    61    1
    97    60    54   am
    98    70    66   am
    99    57    59   ar
   100    57    56    1
   101    61    62    1
   102    53    54    1
   103    53    52    1
   104    53    56    1
   105    19    20    1
   106    54    55    2
   107    20    21    1
   108    62    63    2
   109    62    64   am
   110    66    67    2
   111    66    65    1
   112    22    21    2
   113    64    65    1
   114    69    68    1
   115    65    68    1
   116    39    38    1
   117    36    38   ar
   118    36    34   ar
   119    38    37   ar
   120    48    46   ar
   121    48    50   ar
   122    46    45   ar
   123    37    35   ar
   124    34    33   ar
   125    51    50    1
   126    50    49   ar
   127    45    44    1
   128    45    47   ar
   129    44    41    1
   130    35    33   ar
   131    33    32    1
   132    49    47   ar
   133    43    42    2
   134    41    42    1
   135    41    40    1
   136    32    29    1
   137    29    30    1
   138    29    28    1
   139    31    30    2
