@<TRIPOS>MOLECULE
tmp/2zgjA00.pdb
 196 192 0 0 0
SMALL
GASTEIGER

@<TRIPOS>ATOM
      1  N         25.4590  -17.3700   -9.3010 N.3    25  LEU25      -0.1231
      2  CA        26.3860  -17.7740   -8.2580 C.3    25  LEU25       0.1693
      3  C         25.7880  -17.5710   -6.8450 C.2    25  LEU25       0.2592
      4  O         25.7690  -18.4850   -6.0410 O.2    25  LEU25      -0.2718
      5  CB        27.6810  -16.9380   -8.4080 C.3    25  LEU25       0.0284
      6  CG        29.0180  -17.2050   -7.6930 C.3    25  LEU25       0.0019
      7  CD1       30.1530  -16.3840   -8.2730 C.3    25  LEU25       0.0001
      8  CD2       28.9210  -16.8500   -6.2470 C.3    25  LEU25       0.0001
      9  N         25.3180  -16.3640   -6.5620 N.am   26  CYS26      -0.1970
     10  CA        24.7590  -16.0070   -5.2680 C.3    26  CYS26       0.1712
     11  C         23.6460  -14.9630   -5.4540 C.2    26  CYS26       0.2296
     12  O         23.5800  -14.3140   -6.4950 O.2    26  CYS26      -0.2864
     13  CB        25.8390  -15.4160   -4.3640 C.3    26  CYS26       0.0983
     14  SG        27.0230  -16.5980   -3.7280 S.3    26  CYS26      -0.0798
     15  N         31.5850  -14.8760    1.2520 N.3    41  HIS41      -0.1226
     16  CA        32.2120  -16.0900    0.6730 C.3    41  HIS41       0.1752
     17  C         31.9610  -16.1970   -0.8290 C.2    41  HIS41       0.2596
     18  O         32.6610  -16.9520   -1.5140 O.2    41  HIS41      -0.2718
     19  CB        31.7030  -17.3810    1.3610 C.3    41  HIS41       0.0759
     20  CG        30.2590  -17.6820    1.0690 C.ar   41  HIS41       0.0818
     21  ND1       29.2540  -17.4370    1.9690 N.ar   41  HIS41      -0.2268
     22  CD2       29.6540  -18.2070   -0.0320 C.ar   41  HIS41       0.1154
     23  CE1       28.0880  -17.7870    1.4440 C.ar   41  HIS41       0.1986
     24  NE2       28.3080  -18.2640    0.2320 N.ar   41  HIS41      -0.2212
     25  N         30.9640  -15.4640   -1.3200 N.am   42  CYS42      -0.1970
     26  CA        30.5690  -15.4230   -2.7300 C.3    42  CYS42       0.1712
     27  C         31.6160  -14.7530   -3.6510 C.2    42  CYS42       0.2296
     28  O         31.4970  -14.7620   -4.9000 O.2    42  CYS42      -0.2864
     29  CB        29.2230  -14.6930   -2.8550 C.3    42  CYS42       0.0983
     30  SG        27.7860  -15.5410   -2.1190 S.3    42  CYS42      -0.0798
     31  N         36.4200  -15.3660   -5.9680 N.3    45  GLN45      -0.1245
     32  CA        36.3520  -15.5200   -7.4310 C.3    45  GLN45       0.1566
     33  C         37.2350  -14.4940   -8.1890 C.2    45  GLN45       0.2260
     34  O         37.7220  -13.4960   -7.6260 O.2    45  GLN45      -0.2867
     35  CB        34.9020  -15.3470   -7.9340 C.3    45  GLN45       0.0367
     36  CG        33.7840  -16.0880   -7.1670 C.3    45  GLN45       0.0905
     37  CD        33.6350  -17.5490   -7.6210 C.2    45  GLN45       0.2608
     38  OE1       34.0320  -17.8960   -8.7410 O.2    45  GLN45      -0.2717
     39  NE2       33.0520  -18.4070   -6.7530 N.am   45  GLN45      -0.0878
     40  N         35.2700  -19.8060    6.1710 N.3    80  VAL80      -0.1231
     41  CA        35.1700  -21.1830    6.6860 C.3    80  VAL80       0.1678
     42  C         36.5490  -21.6530    7.2040 C.2    80  VAL80       0.2434
     43  O         37.5660  -21.3750    6.5460 O.2    80  VAL80      -0.2733
     44  CB        34.6850  -22.1210    5.5420 C.3    80  VAL80       0.0265
     45  CG1       35.6370  -23.3710    5.3690 C.3    80  VAL80       0.0020
     46  CG2       33.2070  -22.4340    5.7010 C.3    80  VAL80       0.0020
     47  N         36.5890  -22.4120    8.3330 N.am   81  PRO81      -0.2718
     48  CA        35.5110  -22.9620    9.1890 C.3    81  PRO81       0.1535
     49  C         34.7550  -21.9830   10.0880 C.2    81  PRO81       0.2598
     50  O         33.6270  -22.2810   10.4580 O.2    81  PRO81      -0.2715
     51  CB        36.2230  -23.9850   10.0550 C.3    81  PRO81       0.0310
     52  CG        37.6300  -23.5750   10.0980 C.3    81  PRO81       0.0237
     53  CD        37.9270  -22.8470    8.8020 C.3    81  PRO81       0.0939
     54  N         35.3420  -20.8260   10.4180 N.am   82  ALA82      -0.1964
     55  CA        34.6390  -19.7990   11.2250 C.3    82  ALA82       0.1728
     56  C         33.4320  -19.2200   10.5110 C.2    82  ALA82       0.2616
     57  O         32.3040  -19.2670   11.0220 O.2    82  ALA82      -0.2715
     58  CB        35.6010  -18.6770   11.6080 C.3    82  ALA82       0.0334
     59  N         33.6410  -18.7130    9.2990 N.am   83  LEU83      -0.1977
     60  CA        32.5650  -18.0150    8.5880 C.3    83  LEU83       0.1596
     61  C         31.9070  -16.9640    9.4800 C.2    83  LEU83       0.2287
     62  O         30.7150  -17.0330    9.7620 O.2    83  LEU83      -0.2864
     63  CB        31.5000  -18.9900    8.0910 C.3    83  LEU83       0.0297
     64  CG        31.3020  -19.1990    6.5960 C.3    83  LEU83       0.0022
     65  CD1       29.8610  -19.7900    6.2890 C.3    83  LEU83       0.0001
     66  CD2       31.5560  -17.9380    5.8490 C.3    83  LEU83       0.0001
     67  N         23.8800  -26.7100   15.8970 N.3   157  TRP157     -0.1241
     68  CA        25.0750  -25.9950   15.4960 C.3   157  TRP157      0.1605
     69  C         26.1700  -25.9000   16.5550 C.2   157  TRP157      0.2264
     70  O         27.1310  -25.1760   16.3700 O.2   157  TRP157     -0.2867
     71  CB        24.7310  -24.6150   14.9470 C.3   157  TRP157      0.0550
     72  CG        24.2600  -24.6510   13.5510 C.ar  157  TRP157      0.0003
     73  CD1       23.0400  -24.2900   13.0970 C.ar  157  TRP157      0.0946
     74  CD2       24.9970  -25.0860   12.4160 C.ar  157  TRP157      0.0152
     75  NE1       22.9630  -24.4740   11.7420 N.ar  157  TRP157     -0.2442
     76  CE2       24.1580  -24.9650   11.3010 C.ar  157  TRP157      0.0810
     77  CE3       26.2880  -25.5730   12.2260 C.ar  157  TRP157      0.0012
     78  CZ2       24.5670  -25.3000   10.0280 C.ar  157  TRP157      0.0191
     79  CZ3       26.6890  -25.9030   10.9720 C.ar  157  TRP157      0.0001
     80  CH2       25.8340  -25.7700    9.8830 C.ar  157  TRP157      0.0015
     81  N         28.2660  -22.9920   17.9550 N.3   160  SER160     -0.1217
     82  CA        29.0300  -22.2560   16.9820 C.3   160  SER160      0.1889
     83  C         28.3880  -20.9780   16.4360 C.2   160  SER160      0.2288
     84  O         29.0310  -20.2900   15.6810 O.2   160  SER160     -0.2866
     85  CB        29.4330  -23.1780   15.8380 C.3   160  SER160      0.2089
     86  OG        28.4330  -23.1640   14.8740 O.3   160  SER160     -0.2183
     87  N         24.1850  -13.7930   14.3740 N.3   165  MET165     -0.1245
     88  CA        23.6990  -14.8700   13.4570 C.3   165  MET165      0.1570
     89  C         22.2410  -15.2200   13.7150 C.2   165  MET165      0.2261
     90  O         21.8120  -15.2800   14.8640 O.2   165  MET165     -0.2867
     91  CB        24.5990  -16.1060   13.5400 C.3   165  MET165      0.0387
     92  CG        25.9650  -15.9280   12.7930 C.3   165  MET165      0.0595
     93  SD        26.8760  -17.5240   13.0100 S.3   165  MET165     -0.1393
     94  CE        28.4000  -17.3270   12.0170 C.3   165  MET165      0.0692
     95  N         16.5560  -23.0960    1.9100 N.3   177  PRO177     -0.2102
     96  CA        17.4230  -22.5250    0.8510 C.3   177  PRO177      0.1504
     97  C         18.5260  -23.5050    0.5380 C.2   177  PRO177      0.2576
     98  O         18.7960  -24.4020    1.3390 O.2   177  PRO177     -0.2718
     99  CB        18.0620  -21.2940    1.4910 C.3   177  PRO177      0.0282
    100  CG        17.9180  -21.5030    2.9780 C.3   177  PRO177      0.0208
    101  CD        16.6530  -22.3670    3.1870 C.3   177  PRO177      0.0893
    102  N         19.2030  -23.3530   -0.5870 N.am  178  CYS178     -0.1957
    103  CA        20.1840  -24.3690   -0.9300 C.3   178  CYS178      0.1843
    104  C         21.1890  -23.6200   -1.8060 C.2   178  CYS178      0.2625
    105  O         21.0600  -22.4350   -1.9300 O.2   178  CYS178     -0.2714
    106  CB        19.5080  -25.5540   -1.6410 C.3   178  CYS178      0.0997
    107  SG        20.4180  -27.1060   -1.5780 S.3   178  CYS178     -0.0797
    108  N         22.1730  -24.3040   -2.3960 N.am  179  LYS179     -0.1963
    109  CA        23.2950  -23.6520   -3.0550 C.3   179  LYS179      0.1728
    110  C         22.7970  -22.6240   -4.0980 C.2   179  LYS179      0.2616
    111  O         21.9730  -22.9470   -4.9000 O.2   179  LYS179     -0.2715
    112  CB        24.2060  -24.7210   -3.6820 C.3   179  LYS179      0.0311
    113  CG        25.5670  -24.1890   -4.1010 C.3   179  LYS179      0.0038
    114  CD        26.5470  -25.3160   -4.4660 C.3   179  LYS179      0.0206
    115  CE        26.4220  -25.7930   -5.9370 C.3   179  LYS179      0.1093
    116  NZ        27.0060  -24.7170   -6.8060 N.3   179  LYS179     -0.1314
    117  N         23.2710  -21.3750   -4.0340 N.am  180  GLY180     -0.1955
    118  CA        22.8040  -20.3340   -4.9410 C.3   180  GLY180      0.1869
    119  C         22.0270  -19.2900   -4.1950 C.2   180  GLY180      0.2309
    120  O         21.9380  -18.1560   -4.6690 O.2   180  GLY180     -0.2863
    121  N         22.5760  -18.0800   -0.9660 N.3   182  SER182     -0.1217
    122  CA        23.2900  -17.2110   -0.0500 C.3   182  SER182      0.1889
    123  C         23.5020  -15.8410   -0.6590 C.2   182  SER182      0.2288
    124  O         23.6110  -15.7210   -1.8710 O.2   182  SER182     -0.2866
    125  CB        24.6330  -17.7770    0.2770 C.3   182  SER182      0.2089
    126  OG        25.5080  -17.4400   -0.7650 O.3   182  SER182     -0.2183
    127  N         21.4620  -14.2190    3.9350 N.3   198  LEU198     -0.1231
    128  CA        21.7500  -15.6320    4.1120 C.3   198  LEU198      0.1693
    129  C         23.2200  -16.0300    3.9300 C.2   198  LEU198      0.2593
    130  O         23.9180  -15.5300    3.0300 O.2   198  LEU198     -0.2718
    131  CB        20.8200  -16.4550    3.2110 C.3   198  LEU198      0.0284
    132  CG        19.4820  -16.5080    3.9830 C.3   198  LEU198      0.0019
    133  CD1       18.3160  -15.7050    3.3330 C.3   198  LEU198      0.0001
    134  CD2       19.1100  -17.9120    4.5570 C.3   198  LEU198      0.0001
    135  N         23.6680  -16.9770    4.7510 N.am  199  SER199     -0.1938
    136  CA        25.0870  -17.2830    4.8570 C.3   199  SER199      0.2055
    137  C         25.3840  -18.7740    4.5700 C.2   199  SER199      0.2643
    138  O         26.0550  -19.1150    3.6130 O.2   199  SER199     -0.2714
    139  CB        25.5480  -16.9090    6.2770 C.3   199  SER199      0.2130
    140  OG        26.9390  -17.1370    6.4580 O.3   199  SER199     -0.2179
    141  N         24.8940  -19.6630    5.4320 N.am  200  PHE200     -0.1959
    142  CA        25.3230  -21.0720    5.3800 C.3   200  PHE200      0.1771
    143  C         24.2810  -22.0380    5.8950 C.2   200  PHE200      0.2620
    144  O         23.2580  -21.6400    6.4580 O.2   200  PHE200     -0.2715
    145  CB        26.6790  -21.3160    6.1120 C.3   200  PHE200      0.0574
    146  CG        26.6480  -21.0540    7.5980 C.ar  200  PHE200     -0.0200
    147  CD1       26.9790  -19.7970    8.1160 C.ar  200  PHE200     -0.0042
    148  CD2       26.2930  -22.0570    8.4830 C.ar  200  PHE200     -0.0042
    149  CE1       26.9470  -19.5440    9.5050 C.ar  200  PHE200     -0.0003
    150  CE2       26.2680  -21.8510    9.8760 C.ar  200  PHE200     -0.0003
    151  CZ        26.5760  -20.6060   10.4120 C.ar  200  PHE200     -0.0000
    152  N         24.5550  -23.3210    5.6740 N.am  201  SER201     -0.1936
    153  CA        23.8360  -24.3840    6.3430 C.3   201  SER201      0.2055
    154  C         24.8650  -25.4680    6.3720 C.2   201  SER201      0.2644
    155  O         26.0470  -25.1700    6.4730 O.2   201  SER201     -0.2714
    156  CB        22.6100  -24.8510    5.5050 C.3   201  SER201      0.2130
    157  OG        23.0760  -25.4440    4.2920 O.3   201  SER201     -0.2179
    158  N         24.3820  -26.7050    6.2160 N.am  202  SER202     -0.1935
    159  CA        25.1520  -27.9180    6.0840 C.3   202  SER202      0.2055
    160  C         25.2670  -28.2570    4.5880 C.2   202  SER202      0.2642
    161  O         24.6580  -27.5900    3.7300 O.2   202  SER202     -0.2714
    162  CB        24.3520  -29.0320    6.7640 C.3   202  SER202      0.2130
    163  OG        25.1970  -29.9210    7.4360 O.3   202  SER202     -0.2179
    164  N         26.0060  -29.3160    4.2740 N.am  203  ARG203     -0.1977
    165  CA        26.0880  -29.8360    2.8910 C.3   203  ARG203      0.1597
    166  C         24.7320  -30.3770    2.3690 C.2   203  ARG203      0.2287
    167  O         24.4020  -30.2560    1.1890 O.2   203  ARG203     -0.2864
    168  CB        27.1830  -30.9220    2.8230 C.3   203  ARG203      0.0334
    169  CG        27.6210  -31.3270    1.4040 C.3   203  ARG203      0.0492
    170  CD        28.4770  -32.6070    1.4060 C.3   203  ARG203      0.2205
    171  NE        27.7380  -33.8080    1.7960 N.pl3 203  ARG203     -0.0865
    172  CZ        26.8470  -34.4610    1.0330 C.cat 203  ARG203      0.5346
    173  NH1       26.5290  -34.0260   -0.2040 N.pl3 203  ARG203      0.1354
    174  NH2       26.2460  -35.5510    1.5220 N.pl3 203  ARG203      0.1354
    175  N         20.9410  -29.5660    2.4160 N.3   205  CYS205     -0.1235
    176  CA        20.2580  -28.2570    2.6990 C.3   205  CYS205      0.1677
    177  C         19.0530  -28.3600    3.6280 C.2   205  CYS205      0.2270
    178  O         18.7880  -27.4180    4.4110 O.2   205  CYS205     -0.2867
    179  CB        19.8350  -27.5880    1.4050 C.3   205  CYS205      0.0956
    180  SG        21.2960  -27.1970    0.3230 S.3   205  CYS205     -0.0801
    181  N         20.8120  -29.0590   11.1660 N.3   210  LYS210     -0.1245
    182  CA        21.7560  -28.0130   10.7370 C.3   210  LYS210      0.1561
    183  C         20.9640  -26.9880    9.9590 C.2   210  LYS210      0.2260
    184  O         21.0810  -26.9000    8.7330 O.2   210  LYS210     -0.2867
    185  CB        22.9420  -28.5680    9.8750 C.3   210  LYS210      0.0271
    186  CG        23.8860  -29.6290   10.5920 C.3   210  LYS210      0.0035
    187  CD        24.7360  -28.9360   11.7210 C.3   210  LYS210      0.0206
    188  CE        25.3520  -29.9310   12.7850 C.3   210  LYS210      0.1093
    189  NZ        24.3620  -30.7470   13.5950 N.3   210  LYS210     -0.1314
    190  N         19.2990  -23.4790    8.3960 N.3   212  PRO212     -0.2116
    191  CA        19.8890  -22.3690    7.6550 C.3   212  PRO212      0.1372
    192  C         20.1930  -21.1810    8.6070 C.2   212  PRO212      0.2244
    193  O         19.4850  -20.9840    9.6130 O.2   212  PRO212     -0.2868
    194  CB        18.8160  -21.9890    6.6120 C.3   212  PRO212      0.0268
    195  CG        17.5220  -22.7130    7.0620 C.3   212  PRO212      0.0207
    196  CD        17.9530  -23.8860    7.8990 C.3   212  PRO212      0.0892
@<TRIPOS>BOND
     1     1     2    1
     2    38    37    2
     3     5     2    1
     4     5     6    1
     5     7     6    1
     6     2     3    1
     7    33    34    2
     8    33    32    1
     9    35    32    1
    10    35    36    1
    11     6     8    1
    12    37    36    1
    13    37    39   am
    14    32    31    1
    15     3     9   am
    16     3     4    2
    17   116   115    1
    18     9    10    1
    19    12    11    2
    20   115   114    1
    21    11    10    1
    22    10    13    1
    23   118   119    1
    24   118   117    1
    25   111   110    2
    26    28    27    2
    27   120   119    2
    28   114   113    1
    29    13    14    1
    30   113   112    1
    31   110   117   am
    32   110   109    1
    33    14    30    1
    34   112   109    1
    35    27    26    1
    36   109   108    1
    37    29    26    1
    38    29    30    1
    39    26    25    1
    40   108   104   am
    41   105   104    2
    42   124   123    2
    43   104   103    1
    44   106   107    1
    45   106   103    1
    46   107   180    1
    47    18    17    2
    48    25    17   am
    49   121   122    1
    50   103   102    1
    51    17    16    1
    52   126   125    1
    53   123   122    1
    54   102    97   am
    55   173   172    1
    56   122   125    1
    57    22    24   ar
    58    22    20   ar
    59    24    23   ar
    60   180   179    1
    61    97    96    1
    62    97    98    2
    63    16    15    1
    64    16    19    1
    65    96    99    1
    66    96    95    1
    67   172   174    1
    68   172   171    2
    69    20    19    1
    70    20    21   ar
    71   167   166    2
    72   169   170    1
    73   169   168    1
    74   179   176    1
    75   170   171    1
    76    23    21   ar
    77    99   100    1
    78    95   101    1
    79   166   165    1
    80   175   176    1
    81   176   177    1
    82   168   165    1
    83   165   164    1
    84   100   101    1
    85   130   129    2
    86   131   132    1
    87   131   128    1
    88   133   132    1
    89   138   137    2
    90   177   178    2
    91   161   160    2
    92   129   128    1
    93   129   135   am
    94   127   128    1
    95   132   134    1
    96   164   160   am
    97   157   156    1
    98   137   136    1
    99   137   141   am
   100   160   159    1
   101   135   136    1
   102   136   139    1
   103    45    44    1
   104   142   141    1
   105   142   143    1
   106   142   145    1
   107   156   153    1
   108    44    46    1
   109    44    41    1
   110   152   143   am
   111   152   153    1
   112    66    64    1
   113   143   144    2
   114   159   158    1
   115   159   162    1
   116   145   146    1
   117    40    41    1
   118   158   154   am
   119   139   140    1
   120    65    64    1
   121   153   154    1
   122   154   155    2
   123    43    42    2
   124    64    63    1
   125   194   195    1
   126   194   191    1
   127    41    42    1
   128   162   163    1
   129   195   196    1
   130    42    47   am
   131   146   147   ar
   132   146   148   ar
   133   191   190    1
   134   191   192    1
   135   196   190    1
   136    63    60    1
   137   147   149   ar
   138    47    53    1
   139    47    48    1
   140   148   150   ar
   141    60    59    1
   142    60    61    1
   143   192   193    2
   144   184   183    2
   145    53    52    1
   146    48    51    1
   147    48    49    1
   148    59    56   am
   149    61    62    2
   150   149   151   ar
   151   185   186    1
   152   185   182    1
   153   150   151   ar
   154    80    78   ar
   155    80    79   ar
   156   183   182    1
   157    78    76   ar
   158    51    52    1
   159    49    54   am
   160    49    50    2
   161    54    55    1
   162    56    57    2
   163    56    55    1
   164   186   187    1
   165   182   181    1
   166    79    77   ar
   167    55    58    1
   168    76    75   ar
   169    76    74   ar
   170   187   188    1
   171    75    73   ar
   172    94    93    1
   173    77    74   ar
   174    74    72   ar
   175   188   189    1
   176    92    93    1
   177    92    91    1
   178    73    72   ar
   179    88    91    1
   180    88    89    1
   181    88    87    1
   182    72    71    1
   183    89    90    2
   184    86    85    1
   185    71    68    1
   186    68    67    1
   187    68    69    1
   188    84    83    2
   189    85    82    1
   190    70    69    2
   191    83    82    1
   192    82    81    1
