@<TRIPOS>MOLECULE
tmp/2zgoA00.pdb
 99 92 0 0 0
SMALL
GASTEIGER

@<TRIPOS>ATOM
      1  N          6.9030   22.4320  -38.8560 N.3    43  PRO43      -0.2102
      2  CA         6.2490   21.2050  -38.3940 C.3    43  PRO43       0.1504
      3  C          6.0970   21.1460  -36.8780 C.2    43  PRO43       0.2575
      4  O          5.5510   20.1840  -36.3440 O.2    43  PRO43      -0.2718
      5  CB         7.1900   20.1240  -38.8940 C.3    43  PRO43       0.0282
      6  CG         8.5240   20.7510  -38.6200 C.3    43  PRO43       0.0208
      7  CD         8.3300   22.1760  -39.1300 C.3    43  PRO43       0.0893
      8  N          6.5780   22.1720  -36.1840 N.am   44  ASN44      -0.1975
      9  CA         6.5030   22.1930  -34.7330 C.3    44  ASN44       0.1688
     10  C          5.2370   22.8370  -34.1760 C.2    44  ASN44       0.2292
     11  O          4.7970   23.8790  -34.6490 O.2    44  ASN44      -0.2864
     12  CB         7.7060   22.9400  -34.1550 C.3    44  ASN44       0.1181
     13  CG         9.0290   22.2950  -34.5050 C.2    44  ASN44       0.2629
     14  OD1       10.0180   22.9920  -34.7550 O.2    44  ASN44      -0.2716
     15  ND2        9.0690   20.9670  -34.5030 N.am   44  ASN44      -0.0877
     16  N         16.8550   21.5630  -27.9030 N.3    60  GLN60      -0.1245
     17  CA        15.5190   21.9850  -28.2880 C.3    60  GLN60       0.1566
     18  C         14.6020   20.7970  -28.0840 C.2    60  GLN60       0.2260
     19  O         14.9470   19.6760  -28.4560 O.2    60  GLN60      -0.2867
     20  CB        15.4270   22.4130  -29.7510 C.3    60  GLN60       0.0367
     21  CG        13.9850   22.3860  -30.2640 C.3    60  GLN60       0.0905
     22  CD        13.8420   22.8950  -31.6800 C.2    60  GLN60       0.2608
     23  OE1       13.8850   24.1030  -31.9270 O.2    60  GLN60      -0.2717
     24  NE2       13.6790   21.9740  -32.6240 N.am   60  GLN60      -0.0878
     25  N         11.1250   19.7390  -29.2960 N.3    62  ALA62      -0.1245
     26  CA        10.0940   20.1110  -30.2570 C.3    62  ALA62       0.1562
     27  C          8.9490   19.1170  -30.2570 C.2    62  ALA62       0.2260
     28  O          9.1500   17.9230  -30.4770 O.2    62  ALA62      -0.2867
     29  CB        10.6960   20.2100  -31.6520 C.3    62  ALA62       0.0290
     30  N          5.5530   17.6770  -31.8950 N.3    64  ARG64      -0.1245
     31  CA         4.8270   17.5840  -33.1600 C.3    64  ARG64       0.1563
     32  C          3.6740   16.6010  -33.0340 C.2    64  ARG64       0.2260
     33  O          3.8880   15.3930  -32.9550 O.2    64  ARG64      -0.2867
     34  CB         5.7720   17.1310  -34.2770 C.3    64  ARG64       0.0307
     35  CG         6.9290   18.0800  -34.5070 C.3    64  ARG64       0.0489
     36  CD         7.8180   17.6280  -35.6550 C.3    64  ARG64       0.2205
     37  NE         9.0260   18.4450  -35.7400 N.pl3  64  ARG64      -0.0865
     38  CZ        10.0370   18.2060  -36.5690 C.cat  64  ARG64       0.5346
     39  NH1        9.9860   17.1680  -37.3980 N.pl3  64  ARG64       0.1354
     40  NH2       11.1060   18.9970  -36.5560 N.pl3  64  ARG64       0.1354
     41  N          3.0040   14.6370  -36.6630 N.3    67  GLU67      -0.1245
     42  CA         4.0160   13.6050  -36.8410 C.3    67  GLU67       0.1567
     43  C          4.0500   12.7420  -35.5830 C.2    67  GLU67       0.2260
     44  O          4.7490   11.7270  -35.5360 O.2    67  GLU67      -0.2867
     45  CB         5.3900   14.2400  -37.0900 C.3    67  GLU67       0.0388
     46  CG         5.5690   14.7870  -38.5070 C.3    67  GLU67       0.1160
     47  CD         6.7840   15.6960  -38.6540 C.2    67  GLU67       0.3649
     48  OE1        7.8980   15.2880  -38.2640 O.co2  67  GLU67      -0.2457
     49  OE2        6.6230   16.8240  -39.1690 O.co2  67  GLU67      -0.2457
     50  N         10.8810   15.6860  -30.6770 N.3    71  ILE71      -0.1245
     51  CA        12.2500   15.6950  -31.1800 C.3    71  ILE71       0.1561
     52  C         13.1970   16.4400  -30.2590 C.2    71  ILE71       0.2260
     53  O         12.8880   17.5410  -29.7910 O.2    71  ILE71      -0.2867
     54  CB        12.3350   16.3660  -32.5730 C.3    71  ILE71       0.0252
     55  CG1       11.3160   15.7370  -33.5270 C.3    71  ILE71       0.0019
     56  CG2       13.7490   16.2490  -33.1270 C.3    71  ILE71       0.0019
     57  CD1       11.3250   14.2320  -33.5320 C.3    71  ILE71       0.0001
     58  N         17.0920   17.7880  -30.2440 N.3    73  ASN73      -0.1240
     59  CA        18.2290   18.0060  -31.1320 C.3    73  ASN73       0.1653
     60  C         19.0100   19.2410  -30.6770 C.2    73  ASN73       0.2266
     61  O         18.5910   19.9260  -29.7460 O.2    73  ASN73      -0.2867
     62  CB        17.7240   18.1920  -32.5660 C.3    73  ASN73       0.1155
     63  CG        18.7680   17.8330  -33.6090 C.2    73  ASN73       0.2627
     64  OD1       19.9300   17.5720  -33.2810 O.2    73  ASN73      -0.2716
     65  ND2       18.3590   17.8190  -34.8760 N.am   73  ASN73      -0.0877
     66  N         21.3220   21.4360  -38.1370 N.3    81  TRP81      -0.1241
     67  CA        20.7100   20.6990  -37.0500 C.3    81  TRP81       0.1605
     68  C         21.4380   19.3670  -37.0060 C.2    81  TRP81       0.2264
     69  O         21.6860   18.7590  -38.0420 O.2    81  TRP81      -0.2867
     70  CB        19.2270   20.4850  -37.3220 C.3    81  TRP81       0.0550
     71  CG        18.4180   21.6280  -36.8500 C.ar   81  TRP81       0.0003
     72  CD1       17.8150   22.5900  -37.6080 C.ar   81  TRP81       0.0946
     73  CD2       18.1380   21.9470  -35.4900 C.ar   81  TRP81       0.0152
     74  NE1       17.1670   23.4940  -36.7950 N.ar   81  TRP81      -0.2442
     75  CE2       17.3500   23.1200  -35.4890 C.ar   81  TRP81       0.0810
     76  CE3       18.4790   21.3530  -34.2650 C.ar   81  TRP81       0.0012
     77  CZ2       16.8920   23.7110  -34.3090 C.ar   81  TRP81       0.0191
     78  CZ3       18.0250   21.9430  -33.0900 C.ar   81  TRP81       0.0001
     79  CH2       17.2380   23.1100  -33.1240 C.ar   81  TRP81       0.0015
     80  N         18.9960   13.9610  -34.6390 N.3    84  GLU84      -0.1245
     81  CA        17.7640   13.9860  -33.8710 C.3    84  GLU84       0.1567
     82  C         17.5840   12.7380  -33.0290 C.2    84  GLU84       0.2260
     83  O         18.0050   11.6460  -33.4100 O.2    84  GLU84      -0.2867
     84  CB        16.5470   14.1240  -34.8000 C.3    84  GLU84       0.0388
     85  CG        16.3270   15.5190  -35.3980 C.3    84  GLU84       0.1160
     86  CD        15.0970   15.5800  -36.3040 C.2    84  GLU84       0.3649
     87  OE1       14.7310   16.6950  -36.7540 O.co2  84  GLU84      -0.2457
     88  OE2       14.5000   14.5110  -36.5720 O.co2  84  GLU84      -0.2457
     89  N         14.4060   10.9040  -31.2140 N.3    86  ARG86      -0.1245
     90  CA        12.9500   10.9770  -31.1920 C.3    86  ARG86       0.1563
     91  C         12.2360   10.1150  -30.1560 C.2    86  ARG86       0.2260
     92  O         12.7140    9.0430  -29.7850 O.2    86  ARG86      -0.2867
     93  CB        12.4050   10.6130  -32.5730 C.3    86  ARG86       0.0307
     94  CG        13.0260   11.4000  -33.7100 C.3    86  ARG86       0.0489
     95  CD        12.2190   11.2430  -34.9850 C.3    86  ARG86       0.2205
     96  NE        12.4310   12.3720  -35.8870 N.pl3  86  ARG86      -0.0865
     97  CZ        11.6180   12.6930  -36.8890 C.cat  86  ARG86       0.5346
     98  NH1       10.5340   11.9650  -37.1220 N.pl3  86  ARG86       0.1354
     99  NH2       11.8820   13.7500  -37.6490 N.pl3  86  ARG86       0.1354
@<TRIPOS>BOND
     1    49    47   ar
     2     7     1    1
     3     7     6    1
     4     5     6    1
     5     5     2    1
     6     1     2    1
     7    47    46    1
     8    47    48   ar
     9    46    45    1
    10     2     3    1
    11    66    67    1
    12    69    68    2
    13    99    97    1
    14    72    71   ar
    15    72    74   ar
    16    39    38    1
    17    70    67    1
    18    70    71    1
    19    98    97    1
    20    45    42    1
    21    67    68    1
    22    97    96    2
    23     3     4    2
    24     3     8   am
    25    71    73   ar
    26    42    41    1
    27    42    43    1
    28    74    75   ar
    29    87    86   ar
    30    88    86   ar
    31    38    40    1
    32    38    37    2
    33    86    85    1
    34     8     9    1
    35    96    95    1
    36    37    36    1
    37    36    35    1
    38    43    44    2
    39    73    75   ar
    40    73    76   ar
    41    75    77   ar
    42    85    84    1
    43    95    94    1
    44    65    63   am
    45    84    81    1
    46    14    13    2
    47     9    10    1
    48     9    12    1
    49    11    10    2
    50    80    81    1
    51    35    34    1
    52    13    15   am
    53    13    12    1
    54    77    79   ar
    55    34    31    1
    56    76    78   ar
    57    81    82    1
    58    94    93    1
    59    63    64    2
    60    63    62    1
    61    57    55    1
    62    55    54    1
    63    83    82    2
    64    31    32    1
    65    31    30    1
    66    56    54    1
    67    79    78   ar
    68    32    33    2
    69    24    22   am
    70    93    90    1
    71    54    51    1
    72    62    59    1
    73    23    22    2
    74    22    21    1
    75    29    26    1
    76    89    90    1
    77    90    91    1
    78    51    50    1
    79    51    52    1
    80    59    60    1
    81    59    58    1
    82    60    61    2
    83    28    27    2
    84    21    20    1
    85    52    53    2
    86    26    27    1
    87    26    25    1
    88    91    92    2
    89    20    17    1
    90    19    18    2
    91    17    18    1
    92    17    16    1
