@<TRIPOS>MOLECULE
tmp/2zgyB00.pdb
 159 146 0 0 0
SMALL
GASTEIGER

@<TRIPOS>ATOM
      1  N         -1.6240   24.1660   -2.0080 N.3     6  ASP6       -0.1239
      2  CA        -1.4350   23.8950   -3.4220 C.3     6  ASP6        0.1674
      3  C         -2.7290   23.1500   -3.7200 C.2     6  ASP6        0.2266
      4  O         -2.7960   21.9230   -3.5250 O.2     6  ASP6       -0.2867
      5  CB        -0.2250   22.9890   -3.5820 C.3     6  ASP6        0.1410
      6  CG        -0.0680   22.4810   -5.0060 C.2     6  ASP6        0.3668
      7  OD1       -0.8340   22.9570   -5.8840 O.co2   6  ASP6       -0.2456
      8  OD2        0.8150   21.6240   -5.2180 O.co2   6  ASP6       -0.2456
      9  N         -4.4980   21.5250   -6.0100 N.3     8  GLY8       -0.1210
     10  CA        -4.4610   20.8800   -7.3120 C.3     8  GLY8        0.1956
     11  C         -5.8110   20.2170   -7.5680 C.2     8  GLY8        0.2613
     12  O         -6.5390   19.9620   -6.6180 O.2     8  GLY8       -0.2717
     13  N         -6.1380   19.8960   -8.8200 N.am    9  SER9       -0.1938
     14  CA        -7.4400   19.3000   -9.0770 C.3     9  SER9        0.2055
     15  C         -7.4880   17.8080   -8.7870 C.2     9  SER9        0.2644
     16  O         -8.5230   17.2110   -8.9250 O.2     9  SER9       -0.2714
     17  CB        -7.9150   19.5870  -10.5080 C.3     9  SER9        0.2130
     18  OG        -7.0710   18.9460  -11.4250 O.3     9  SER9       -0.2179
     19  N         -6.3780   17.2040   -8.3890 N.am   10  THR10      -0.1936
     20  CA        -6.4190   15.8070   -8.0080 C.3    10  THR10       0.2028
     21  C         -6.3440   15.8070   -6.4840 C.2    10  THR10       0.2642
     22  O         -7.2380   15.2650   -5.8300 O.2    10  THR10      -0.2714
     23  CB        -5.2660   14.9850   -8.6240 C.3    10  THR10       0.1808
     24  OG1       -5.4930   14.8580  -10.0330 O.3    10  THR10      -0.2208
     25  CG2       -5.1850   13.6060   -7.9950 C.3    10  THR10       0.0379
     26  N         -5.2980   16.4190   -5.9110 N.am   11  ASN11      -0.1971
     27  CA        -5.1870   16.4930   -4.4450 C.3    11  ASN11       0.1688
     28  C         -4.8680   17.9230   -3.9510 C.2    11  ASN11       0.2292
     29  O         -4.1140   18.6470   -4.6060 O.2    11  ASN11      -0.2864
     30  CB        -4.0810   15.6040   -3.9190 C.3    11  ASN11       0.1181
     31  CG        -4.4570   14.1290   -3.9200 C.2    11  ASN11       0.2629
     32  OD1       -5.5970   13.7700   -3.6300 O.2    11  ASN11      -0.2716
     33  ND2       -3.4860   13.2710   -4.2180 N.am   11  ASN11      -0.0877
     34  N         -2.8360   19.9920   -1.3460 N.3    13  LYS13      -0.1245
     35  CA        -1.7280   19.7400   -0.4190 C.3    13  LYS13       0.1561
     36  C         -1.6540   20.9610    0.5050 C.2    13  LYS13       0.2260
     37  O         -1.7700   22.0910    0.0390 O.2    13  LYS13      -0.2867
     38  CB        -0.3760   19.5810   -1.1460 C.3    13  LYS13       0.0271
     39  CG        -0.1740   18.2340   -1.8190 C.3    13  LYS13       0.0035
     40  CD        -1.0320   18.0800   -3.0760 C.3    13  LYS13       0.0206
     41  CE        -0.5830   18.9640   -4.2740 C.3    13  LYS13       0.1093
     42  NZ        -1.4100   18.6530   -5.5130 N.3    13  LYS13      -0.1314
     43  N          2.0960   28.0420   -9.9480 N.3   148  GLU148     -0.1245
     44  CA         2.6810   26.7450   -9.6950 C.3   148  GLU148      0.1567
     45  C          4.1010   26.7960  -10.2670 C.2   148  GLU148      0.2260
     46  O          4.4750   27.7950  -10.8950 O.2   148  GLU148     -0.2867
     47  CB         1.8920   25.6650  -10.4380 C.3   148  GLU148      0.0388
     48  CG         0.4590   25.5730   -9.8630 C.3   148  GLU148      0.1160
     49  CD        -0.3090   24.3630  -10.3670 C.2   148  GLU148      0.3649
     50  OE1        0.0820   23.7730  -11.4180 O.co2 148  GLU148     -0.2457
     51  OE2       -1.3180   24.0300   -9.7150 O.co2 148  GLU148     -0.2457
     52  N          6.8790   19.4470  -14.0870 N.3   170  ASP170     -0.1239
     53  CA         5.8480   19.0760  -13.1260 C.3   170  ASP170      0.1674
     54  C          4.8240   18.0830  -13.7070 C.2   170  ASP170      0.2266
     55  O          4.0240   18.4440  -14.5870 O.2   170  ASP170     -0.2867
     56  CB         5.1150   20.3590  -12.6940 C.3   170  ASP170      0.1410
     57  CG         3.8750   20.0860  -11.8370 C.2   170  ASP170      0.3668
     58  OD1        3.9440   19.2060  -10.9660 O.co2 170  ASP170     -0.2456
     59  OD2        2.8390   20.7700  -12.0180 O.co2 170  ASP170     -0.2456
     60  N          1.6040   16.2810  -12.9090 N.3   172  GLY172     -0.1210
     61  CA         0.5420   16.1960  -11.9250 C.3   172  GLY172      0.1956
     62  C         -0.4830   15.1080  -12.2770 C.2   172  GLY172      0.2612
     63  O         -0.2490   14.2840  -13.1640 O.2   172  GLY172     -0.2717
     64  N         -1.6260   15.1360  -11.5990 N.am  173  GLY173     -0.1942
     65  CA        -2.6610   14.1490  -11.8320 C.3   173  GLY173      0.2014
     66  C         -3.2140   14.1440  -13.2350 C.2   173  GLY173      0.2640
     67  O         -3.4630   13.0870  -13.8000 O.2   173  GLY173     -0.2714
     68  N         -3.3930   15.3180  -13.8180 N.am  174  THR174     -0.1936
     69  CA        -3.9840   15.3850  -15.1420 C.3   174  THR174      0.2028
     70  C         -3.2470   16.2600  -16.1450 C.2   174  THR174      0.2642
     71  O         -3.6860   16.3820  -17.2860 O.2   174  THR174     -0.2714
     72  CB        -5.4310   15.9010  -15.0750 C.3   174  THR174      0.1808
     73  OG1       -5.4450   17.2090  -14.4920 O.3   174  THR174     -0.2208
     74  CG2       -6.3060   14.9850  -14.2180 C.3   174  THR174      0.0379
     75  N         -2.1190   16.8430  -15.7410 N.am  175  THR175     -0.1950
     76  CA        -1.3910   17.7280  -16.6470 C.3   175  THR175      0.1897
     77  C          0.1130   17.5310  -16.4370 C.2   175  THR175      0.2313
     78  O          0.5630   16.9470  -15.4240 O.2   175  THR175     -0.2863
     79  CB        -1.6630   19.2360  -16.3190 C.3   175  THR175      0.1794
     80  OG1       -1.1900   19.4920  -14.9940 O.3   175  THR175     -0.2208
     81  CG2       -3.1410   19.5910  -16.3700 C.3   175  THR175      0.0378
     82  N         -0.7270   11.7100  -14.3980 N.3   199  VAL199     -0.1245
     83  CA        -0.5120   10.4510  -13.7230 C.3   199  VAL199      0.1561
     84  C         -1.7550    9.5670  -13.8850 C.2   199  VAL199      0.2260
     85  O         -1.6630    8.3430  -13.8700 O.2   199  VAL199     -0.2867
     86  CB        -0.2960   10.6730  -12.2320 C.3   199  VAL199      0.0252
     87  CG1       -0.3670    9.3340  -11.4910 C.3   199  VAL199      0.0019
     88  CG2        1.0190   11.3440  -11.9860 C.3   199  VAL199      0.0019
     89  N         -2.7940    5.3960  -13.7040 N.3   203  THR203     -0.1218
     90  CA        -3.8070    4.9150  -12.7770 C.3   203  THR203      0.1862
     91  C         -4.9500    4.2360  -13.5390 C.2   203  THR203      0.2287
     92  O         -5.4080    3.1540  -13.1530 O.2   203  THR203     -0.2866
     93  CB        -4.3820    6.0790  -11.9350 C.3   203  THR203      0.1770
     94  OG1       -3.3320    6.6090  -11.1190 O.3   203  THR203     -0.2211
     95  CG2       -5.4590    5.5920  -11.0150 C.3   203  THR203      0.0375
     96  N         -2.5300    3.3160   -6.8440 N.3   223  ASP223     -0.1239
     97  CA        -1.2890    4.0270   -6.6010 C.3   223  ASP223      0.1674
     98  C         -0.2480    3.1200   -5.9570 C.2   223  ASP223      0.2266
     99  O          0.9220    3.1890   -6.2980 O.2   223  ASP223     -0.2867
    100  CB        -1.5180    5.2780   -5.7340 C.3   223  ASP223      0.1410
    101  CG        -2.2800    6.3820   -6.4730 C.2   223  ASP223      0.3668
    102  OD1       -2.0000    6.6270   -7.6790 O.co2 223  ASP223     -0.2456
    103  OD2       -3.1500    7.0180   -5.8270 O.co2 223  ASP223     -0.2456
    104  N          1.4740    1.0830   -8.4960 N.3   226  ILE226     -0.1231
    105  CA         2.4130    1.8970   -9.2600 C.3   226  ILE226      0.1692
    106  C          3.6640    2.1960   -8.4760 C.2   226  ILE226      0.2591
    107  O          4.7760    1.9980   -8.9600 O.2   226  ILE226     -0.2718
    108  CB         1.7430    3.2260   -9.7140 C.3   226  ILE226      0.0266
    109  CG1        0.6370    2.8890  -10.7260 C.3   226  ILE226      0.0019
    110  CG2        2.7960    4.1710  -10.3550 C.3   226  ILE226      0.0020
    111  CD1       -0.2050    4.0840  -11.1710 C.3   226  ILE226      0.0001
    112  N          3.4740    2.7000   -7.2590 N.am  227  ILE227     -0.1980
    113  CA         4.5760    3.0550   -6.4010 C.3   227  ILE227      0.1595
    114  C          5.4960    1.8720   -6.1700 C.2   227  ILE227      0.2287
    115  O          6.7160    2.0440   -6.1980 O.2   227  ILE227     -0.2864
    116  CB         4.0680    3.5770   -5.0520 C.3   227  ILE227      0.0276
    117  CG1        3.5320    4.9950   -5.2380 C.3   227  ILE227      0.0022
    118  CG2        5.1850    3.5650   -4.0250 C.3   227  ILE227      0.0022
    119  CD1        2.6680    5.4450   -4.0830 C.3   227  ILE227      0.0001
    120  N          6.0810   17.2880   -8.6410 N.3   280  GLY280     -0.1210
    121  CA         4.7080   16.8150   -8.7690 C.3   280  GLY280      0.1956
    122  C          4.6030   15.3600   -8.3410 C.2   280  GLY280      0.2612
    123  O          5.6200   14.6860   -8.2230 O.2   280  GLY280     -0.2717
    124  N          3.3710   14.8820   -8.1550 N.am  281  GLY281     -0.1956
    125  CA         3.1420   13.5020   -7.7740 C.3   281  GLY281      0.1869
    126  C          3.7400   12.5130   -8.7550 C.2   281  GLY281      0.2309
    127  O          4.1840   11.4350   -8.3570 O.2   281  GLY281     -0.2863
    128  N          8.5490   10.6500   -9.9240 N.3   284  GLU284     -0.1231
    129  CA         9.2670    9.3630   -9.9270 C.3   284  GLU284      0.1699
    130  C          9.0050    8.5450  -11.2100 C.2   284  GLU284      0.2592
    131  O          9.7730    7.6370  -11.5690 O.2   284  GLU284     -0.2718
    132  CB         8.8540    8.5230   -8.6760 C.3   284  GLU284      0.0402
    133  CG         7.3620    8.0890   -8.6780 C.3   284  GLU284      0.1161
    134  CD         6.9890    6.8470   -7.7810 C.2   284  GLU284      0.3649
    135  OE1        7.0150    6.9180   -6.5200 O.co2 284  GLU284     -0.2457
    136  OE2        6.6370    5.7900   -8.3460 O.co2 284  GLU284     -0.2457
    137  N          7.9280    8.8790  -11.9120 N.am  285  LEU285     -0.1980
    138  CA         7.5340    8.1510  -13.1210 C.3   285  LEU285      0.1596
    139  C          8.2840    8.5690  -14.3590 C.2   285  LEU285      0.2287
    140  O          8.3430    7.7940  -15.3370 O.2   285  LEU285     -0.2864
    141  CB         6.0220    8.3410  -13.3680 C.3   285  LEU285      0.0297
    142  CG         5.0580    8.0270  -12.2240 C.3   285  LEU285      0.0022
    143  CD1        3.6330    8.1230  -12.6890 C.3   285  LEU285      0.0001
    144  CD2        5.3120    6.6060  -11.7080 C.3   285  LEU285      0.0001
    145  N          8.0790   14.5280   -3.7690 N.3   307  SER307     -0.1202
    146  CA         7.6300   15.3210   -4.9170 C.3   307  SER307      0.2020
    147  C          6.2270   15.9320   -4.9610 C.2   307  SER307      0.2618
    148  O          6.0660   17.0150   -5.5030 O.2   307  SER307     -0.2717
    149  CB         7.8900   14.5070   -6.1920 C.3   307  SER307      0.2103
    150  OG         9.2870   14.2220   -6.2880 O.3   307  SER307     -0.2182
    151  N          5.2110   15.2640   -4.4210 N.am  308  GLN308     -0.1979
    152  CA         3.8780   15.8560   -4.4600 C.3   308  GLN308      0.1601
    153  C          3.7870   17.1220   -3.6010 C.2   308  GLN308      0.2287
    154  O          2.8800   17.9520   -3.7970 O.2   308  GLN308     -0.2864
    155  CB         2.8330   14.8560   -3.9890 C.3   308  GLN308      0.0394
    156  CG         2.9250   14.4990   -2.5080 C.3   308  GLN308      0.0908
    157  CD         2.0780   13.2760   -2.1870 C.2   308  GLN308      0.2608
    158  OE1        1.0110   13.0620   -2.7900 O.2   308  GLN308     -0.2717
    159  NE2        2.5450   12.4670   -1.2200 N.am  308  GLN308     -0.0878
@<TRIPOS>BOND
     1    71    70    2
     2    76    77    1
     3    76    79    1
     4    76    75    1
     5    77    78    2
     6    81    79    1
     7    79    80    1
     8    70    75   am
     9    70    69    1
    10   140   139    2
    11    69    72    1
    12    69    68    1
    13    72    73    1
    14    72    74    1
    15    55    54    2
    16    82    83    1
    17   139   138    1
    18    52    53    1
    19    84    85    2
    20    84    83    1
    21    68    66   am
    22    67    66    2
    23    83    86    1
    24    54    53    1
    25    89    90    1
    26    91    92    2
    27    91    90    1
    28   141   138    1
    29   141   142    1
    30    66    65    1
    31    63    62    2
    32    53    56    1
    33   138   137    1
    34    60    61    1
    35    90    93    1
    36    56    57    1
    37   143   142    1
    38    62    61    1
    39    62    64   am
    40    86    88    1
    41    86    87    1
    42   142   144    1
    43    59    57   ar
    44    93    94    1
    45    93    95    1
    46   137   130   am
    47    57    58   ar
    48    65    64    1
    49   131   130    2
    50    18    17    1
    51    50    49   ar
    52   130   129    1
    53   111   109    1
    54    46    45    2
    55   109   108    1
    56    17    14    1
    57    47    48    1
    58    47    44    1
    59    49    48    1
    60    49    51   ar
    61   110   108    1
    62    45    44    1
    63    24    23    1
    64    43    44    1
    65   129   128    1
    66   129   132    1
    67   108   105    1
    68   105   104    1
    69   105   106    1
    70    14    13    1
    71    14    15    1
    72   107   106    2
    73    16    15    2
    74    13    11   am
    75    15    19   am
    76   121   120    1
    77   121   122    1
    78   126   127    2
    79   126   125    1
    80   133   132    1
    81   133   134    1
    82    23    20    1
    83    23    25    1
    84   106   112   am
    85    19    20    1
    86   136   134   ar
    87   122   123    2
    88   122   124   am
    89   124   125    1
    90    20    21    1
    91   134   135   ar
    92   102   101   ar
    93    11    10    1
    94    11    12    2
    95    10     9    1
    96   112   113    1
    97    96    97    1
    98    97    98    1
    99    97   100    1
   100    21    26   am
   101    21    22    2
   102   101   103   ar
   103   101   100    1
   104   113   114    1
   105   113   116    1
   106    99    98    2
   107   150   149    1
   108   115   114    2
   109   149   146    1
   110    26    27    1
   111     7     6   ar
   112    42    41    1
   113   148   147    2
   114   117   116    1
   115   117   119    1
   116     8     6   ar
   117   116   118    1
   118     6     5    1
   119   147   146    1
   120   147   151   am
   121   146   145    1
   122    29    28    2
   123   152   151    1
   124   152   155    1
   125   152   153    1
   126    27    28    1
   127    27    30    1
   128    41    40    1
   129    33    31   am
   130   155   156    1
   131    31    30    1
   132    31    32    2
   133   154   153    2
   134     3     4    2
   135     3     2    1
   136     5     2    1
   137     2     1    1
   138    40    39    1
   139   158   157    2
   140   156   157    1
   141   157   159   am
   142    39    38    1
   143    34    35    1
   144    38    35    1
   145    35    36    1
   146    37    36    2
