@<TRIPOS>MOLECULE
tmp/2zheB01.pdb
 217 220 0 0 0
SMALL
GASTEIGER

@<TRIPOS>ATOM
      1  N         22.4680   -5.6920   18.1390 N.3    43  HIS43      -0.1241
      2  CA        22.3580   -7.0510   17.6190 C.3    43  HIS43       0.1621
      3  C         21.6860   -7.1070   16.2520 C.2    43  HIS43       0.2264
      4  O         21.6800   -8.1610   15.6080 O.2    43  HIS43      -0.2867
      5  CB        21.6020   -7.9280   18.6110 C.3    43  HIS43       0.0745
      6  CG        20.1210   -7.8030   18.6910 C.ar   43  HIS43       0.0817
      7  ND1       19.4810   -7.0600   19.6630 N.ar   43  HIS43      -0.2268
      8  CD2       19.1330   -8.3360   17.9350 C.ar   43  HIS43       0.1154
      9  CE1       18.1740   -7.1320   19.5000 C.ar   43  HIS43       0.1986
     10  NE2       17.9380   -7.9060   18.4520 N.ar   43  HIS43      -0.2212
     11  N         25.7820   -9.8300   15.3160 N.3    47  TYR47      -0.1241
     12  CA        25.5860  -10.9600   16.1980 C.3    47  TYR47       0.1605
     13  C         26.3610  -12.1600   15.6390 C.2    47  TYR47       0.2264
     14  O         25.7720  -13.0120   14.9780 O.2    47  TYR47      -0.2867
     15  CB        24.1200  -11.3520   16.3560 C.3    47  TYR47       0.0534
     16  CG        23.8880  -12.2580   17.5480 C.ar   47  TYR47      -0.0201
     17  CD1       24.1890  -11.8070   18.8260 C.ar   47  TYR47      -0.0009
     18  CD2       23.3830  -13.5420   17.4150 C.ar   47  TYR47      -0.0009
     19  CE1       23.9870  -12.6100   19.9280 C.ar   47  TYR47       0.0417
     20  CE2       23.1810  -14.3510   18.5180 C.ar   47  TYR47       0.0417
     21  CZ        23.4860  -13.8810   19.7760 C.ar   47  TYR47       0.1957
     22  OH        23.2920  -14.6730   20.8890 O.3    47  TYR47      -0.2866
     23  N         25.3100  -15.8360   14.8950 N.3    50  TRP50      -0.1241
     24  CA        24.3920  -16.1150   13.7970 C.3    50  TRP50       0.1605
     25  C         24.9410  -15.5460   12.4890 C.2    50  TRP50       0.2264
     26  O         24.1620  -15.2270   11.5930 O.2    50  TRP50      -0.2867
     27  CB        23.0020  -15.5450   14.0650 C.3    50  TRP50       0.0550
     28  CG        22.3110  -16.0950   15.2710 C.ar   50  TRP50       0.0003
     29  CD1       22.6530  -17.1680   16.0350 C.ar   50  TRP50       0.0946
     30  CD2       21.1130  -15.5690   15.8660 C.ar   50  TRP50       0.0152
     31  NE1       21.7580  -17.3510   17.0630 N.ar   50  TRP50      -0.2442
     32  CE2       20.7980  -16.3730   16.9760 C.ar   50  TRP50       0.0810
     33  CE3       20.2780  -14.4890   15.5530 C.ar   50  TRP50       0.0012
     34  CZ2       19.6870  -16.1360   17.7820 C.ar   50  TRP50       0.0191
     35  CZ3       19.1800  -14.2640   16.3600 C.ar   50  TRP50       0.0001
     36  CH2       18.8860  -15.0750   17.4610 C.ar   50  TRP50       0.0015
     37  N         28.1220   -9.0870   23.0080 N.3    92  TRP92      -0.1227
     38  CA        27.3600  -10.1060   22.2870 C.3    92  TRP92       0.1737
     39  C         27.7610  -11.5200   22.7000 C.2    92  TRP92       0.2595
     40  O         26.9960  -12.4600   22.4640 O.2    92  TRP92      -0.2718
     41  CB        27.5490   -9.9330   20.7870 C.3    92  TRP92       0.0564
     42  CG        28.9590   -9.9720   20.2920 C.ar   92  TRP92       0.0003
     43  CD1       29.7230   -8.8770   20.0010 C.ar   92  TRP92       0.0946
     44  CD2       29.7810  -11.1170   20.0240 C.ar   92  TRP92       0.0152
     45  NE1       30.9620   -9.2670   19.5710 N.ar   92  TRP92      -0.2442
     46  CE2       31.0260  -10.6370   19.5750 C.ar   92  TRP92       0.0810
     47  CE3       29.5900  -12.5030   20.1190 C.ar   92  TRP92       0.0012
     48  CZ2       32.0760  -11.4890   19.2210 C.ar   92  TRP92       0.0191
     49  CZ3       30.6330  -13.3430   19.7670 C.ar   92  TRP92       0.0001
     50  CH2       31.8590  -12.8380   19.3250 C.ar   92  TRP92       0.0015
     51  N         28.9410  -11.6530   23.3010 N.am   93  ARG93      -0.1966
     52  CA        29.4130  -12.9640   23.7520 C.3    93  ARG93       0.1729
     53  C         28.6190  -13.5050   24.9300 C.2    93  ARG93       0.2616
     54  O         28.3120  -14.7020   24.9830 O.2    93  ARG93      -0.2715
     55  CB        30.9020  -12.8810   24.1010 C.3    93  ARG93       0.0348
     56  CG        31.7350  -12.2930   22.9670 C.3    93  ARG93       0.0492
     57  CD        33.2020  -12.2260   23.3410 C.3    93  ARG93       0.2205
     58  NE        34.1130  -12.5780   22.2630 N.pl3  93  ARG93      -0.0865
     59  CZ        34.3660  -13.8210   21.8710 C.cat  93  ARG93       0.5346
     60  NH1       33.7820  -14.8610   22.4540 N.pl3  93  ARG93       0.1354
     61  NH2       35.2180  -14.0060   20.8750 N.pl3  93  ARG93       0.1354
     62  N         28.2590  -12.6550   25.8900 N.am   94  GLU94      -0.1963
     63  CA        27.5630  -13.1470   27.0690 C.3    94  GLU94       0.1733
     64  C         26.0840  -12.7760   27.1150 C.2    94  GLU94       0.2616
     65  O         25.2350  -13.6530   26.9370 O.2    94  GLU94      -0.2715
     66  CB        28.2310  -12.6190   28.3520 C.3    94  GLU94       0.0429
     67  CG        27.6250  -13.2040   29.6200 C.3    94  GLU94       0.1163
     68  CD        28.0400  -12.4600   30.8740 C.2    94  GLU94       0.3649
     69  OE1       28.9660  -11.6230   30.7790 O.co2  94  GLU94      -0.2457
     70  OE2       27.4470  -12.6970   31.9510 O.co2  94  GLU94      -0.2457
     71  N         25.7760  -11.5010   27.3780 N.am   95  ASN95      -0.1958
     72  CA        24.4050  -11.1450   27.7040 C.3    95  ASN95       0.1819
     73  C         23.8380   -9.9710   26.9260 C.2    95  ASN95       0.2621
     74  O         22.7550   -9.4970   27.2850 O.2    95  ASN95      -0.2715
     75  CB        24.3180  -10.8270   29.2100 C.3    95  ASN95       0.1195
     76  CG        25.2590   -9.7060   29.5950 C.2    95  ASN95       0.2630
     77  OD1       26.0890   -9.2660   28.8030 O.2    95  ASN95      -0.2716
     78  ND2       25.1300   -9.2270   30.8260 N.am   95  ASN95      -0.0877
     79  N         24.5070   -9.4950   25.8870 N.am   96  LEU96      -0.1977
     80  CA        23.9100   -8.4160   25.0900 C.3    96  LEU96       0.1596
     81  C         23.8210   -7.1190   25.8830 C.2    96  LEU96       0.2287
     82  O         22.9700   -6.2560   25.6630 O.2    96  LEU96      -0.2864
     83  CB        22.5320   -8.8300   24.5800 C.3    96  LEU96       0.0297
     84  CG        22.3090   -9.1000   23.1030 C.3    96  LEU96       0.0022
     85  CD1       23.4640   -9.8360   22.4340 C.3    96  LEU96       0.0001
     86  CD2       21.0240   -9.9050   22.9030 C.3    96  LEU96       0.0001
     87  N         20.2090  -15.5230   33.0080 N.3   171  ILE171     -0.1245
     88  CA        21.1810  -14.6180   32.3810 C.3   171  ILE171      0.1561
     89  C         21.6600  -13.5430   33.3380 C.2   171  ILE171      0.2260
     90  O         20.9120  -12.9710   34.1270 O.2   171  ILE171     -0.2867
     91  CB        20.5450  -13.9940   31.1230 C.3   171  ILE171      0.0252
     92  CG1       20.2010  -15.0530   30.0690 C.3   171  ILE171      0.0019
     93  CG2       21.4040  -12.8860   30.5290 C.3   171  ILE171      0.0019
     94  CD1       21.3980  -15.5020   29.2640 C.3   171  ILE171      0.0001
     95  N          3.8330   -8.7490   24.7550 N.3   191  ASP191     -0.1225
     96  CA         5.2960   -8.6740   24.7510 C.3   191  ASP191      0.1805
     97  C          5.7780   -8.3370   23.3480 C.2   191  ASP191      0.2598
     98  O          5.0280   -8.4500   22.3830 O.2   191  ASP191     -0.2718
     99  CB         5.8820   -9.9860   25.2450 C.3   191  ASP191      0.1424
    100  CG         7.3610  -10.0250   25.5260 C.2   191  ASP191      0.3668
    101  OD1        8.0710   -9.0180   25.3620 O.co2 191  ASP191     -0.2456
    102  OD2        7.8260  -11.1200   25.9320 O.co2 191  ASP191     -0.2456
    103  N          7.0340   -7.9370   23.3080 N.am  192  ALA192     -0.1966
    104  CA         7.8070   -7.8590   22.0900 C.3   192  ALA192      0.1728
    105  C          8.3010   -9.2620   21.7350 C.2   192  ALA192      0.2616
    106  O          8.4300  -10.1090   22.6050 O.2   192  ALA192     -0.2715
    107  CB         8.9900   -6.9210   22.2140 C.3   192  ALA192      0.0334
    108  N          8.5680   -9.4730   20.4600 N.am  193  CYS193     -0.1954
    109  CA         9.0190  -10.7630   19.9710 C.3   193  CYS193      0.1843
    110  C         10.0660  -10.5820   18.8800 C.2   193  CYS193      0.2625
    111  O         10.4080   -9.4450   18.5420 O.2   193  CYS193     -0.2714
    112  CB         7.8370  -11.5700   19.4180 C.3   193  CYS193      0.0997
    113  SG         8.1090  -13.3590   19.3690 S.3   193  CYS193     -0.0797
    114  N         10.5240  -11.7070   18.3490 N.am  194  GLU194     -0.1977
    115  CA        11.3680  -11.7330   17.1710 C.3   194  GLU194      0.1602
    116  C         10.8950  -10.7400   16.1130 C.2   194  GLU194      0.2287
    117  O          9.7210  -10.7550   15.7400 O.2   194  GLU194     -0.2864
    118  CB        11.3640  -13.1520   16.5860 C.3   194  GLU194      0.0415
    119  CG        12.6800  -13.5880   15.9880 C.3   194  GLU194      0.1163
    120  CD        12.5150  -14.5320   14.8100 C.2   194  GLU194      0.3649
    121  OE1       11.7220  -15.4920   14.9090 O.co2 194  GLU194     -0.2457
    122  OE2       13.1960  -14.3050   13.7810 O.co2 194  GLU194     -0.2457
    123  N         13.0780   -6.3140   17.4760 N.3   197  SER197     -0.1217
    124  CA        14.4390   -5.9540   17.8110 C.3   197  SER197      0.1889
    125  C         14.7580   -4.5350   17.3670 C.2   197  SER197      0.2288
    126  O         14.2830   -4.1830   16.2950 O.2   197  SER197     -0.2866
    127  CB        15.4350   -6.9050   17.1380 C.3   197  SER197      0.2089
    128  OG        15.3060   -8.2010   17.7050 O.3   197  SER197     -0.2183
    129  N         14.2970   -2.5290   22.3280 N.3   217  VAL217     -0.1231
    130  CA        13.9170   -3.9410   22.3340 C.3   217  VAL217      0.1692
    131  C         15.1880   -4.7640   22.1740 C.2   217  VAL217      0.2593
    132  O         15.8810   -4.5860   21.1660 O.2   217  VAL217     -0.2718
    133  CB        12.9150   -4.2820   21.2230 C.3   217  VAL217      0.0266
    134  CG1       12.4780   -5.7440   21.2960 C.3   217  VAL217      0.0020
    135  CG2       11.6980   -3.3700   21.2940 C.3   217  VAL217      0.0020
    136  N         15.5140   -5.6180   23.1390 N.am  218  SER218     -0.1938
    137  CA        16.8160   -6.2880   23.0770 C.3   218  SER218      0.2055
    138  C         16.7080   -7.8010   23.1260 C.2   218  SER218      0.2643
    139  O         17.1290   -8.4720   22.1770 O.2   218  SER218     -0.2714
    140  CB        17.7300   -5.8040   24.2090 C.3   218  SER218      0.2130
    141  OG        19.0880   -6.1970   24.0130 O.3   218  SER218     -0.2179
    142  N         16.1700   -8.3710   24.2060 N.am  219  TRP219     -0.1959
    143  CA        16.0550   -9.8320   24.2050 C.3   219  TRP219      0.1771
    144  C         14.9370  -10.3050   25.1210 C.2   219  TRP219      0.2620
    145  O         14.2410   -9.5280   25.7760 O.2   219  TRP219     -0.2715
    146  CB        17.3910  -10.4840   24.5630 C.3   219  TRP219      0.0590
    147  CG        17.8770  -10.1750   25.9440 C.ar  219  TRP219      0.0006
    148  CD1       18.5610   -9.0500   26.3120 C.ar  219  TRP219      0.0946
    149  CD2       17.7310  -10.9660   27.1290 C.ar  219  TRP219      0.0152
    150  NE1       18.8470   -9.0970   27.6530 N.ar  219  TRP219     -0.2442
    151  CE2       18.3500  -10.2620   28.1790 C.ar  219  TRP219      0.0810
    152  CE3       17.1390  -12.1990   27.4130 C.ar  219  TRP219      0.0012
    153  CZ2       18.4030  -10.7360   29.4850 C.ar  219  TRP219      0.0191
    154  CZ3       17.1900  -12.6700   28.7120 C.ar  219  TRP219      0.0001
    155  CH2       17.8140  -11.9450   29.7320 C.ar  219  TRP219      0.0015
    156  N         14.7600  -11.6210   25.1270 N.am  220  GLY220     -0.1940
    157  CA        13.7460  -12.2790   25.9280 C.3   220  GLY220      0.2014
    158  C         13.8720  -13.7870   25.7900 C.2   220  GLY220      0.2639
    159  O         14.6070  -14.2590   24.9280 O.2   220  GLY220     -0.2714
    160  N         13.1660  -14.5360   26.6300 N.am  221  GLU221     -0.1963
    161  CA        13.1910  -15.9990   26.4790 C.3   221  GLU221      0.1733
    162  C         11.8000  -16.4350   26.0670 C.2   221  GLU221      0.2617
    163  O         10.8280  -16.4500   26.8130 O.2   221  GLU221     -0.2715
    164  CB        13.7220  -16.6310   27.7660 C.3   221  GLU221      0.0429
    165  CG        15.1200  -16.1150   28.0900 C.3   221  GLU221      0.1163
    166  CD        15.6620  -16.3990   29.4730 C.2   221  GLU221      0.3649
    167  OE1       16.7900  -16.9450   29.5430 O.co2 221  GLU221     -0.2457
    168  OE2       15.0070  -16.0820   30.4920 O.co2 221  GLU221     -0.2457
    169  N         11.7060  -16.7790   24.7810 N.am  222  GLY222     -0.1940
    170  CA        10.3810  -16.9710   24.2010 C.3   222  GLY222      0.2014
    171  C          9.7020  -15.6100   24.1300 C.2   222  GLY222      0.2639
    172  O         10.3060  -14.5750   24.4200 O.2   222  GLY222     -0.2714
    173  N          8.4360  -15.5700   23.7450 N.am  223  CYS223     -0.1967
    174  CA         7.7140  -14.2960   23.7440 C.3   223  CYS223      0.1712
    175  C          6.4530  -14.4950   24.5850 C.2   223  CYS223      0.2296
    176  O          5.8160  -15.5460   24.4520 O.2   223  CYS223     -0.2864
    177  CB         7.4410  -13.8340   22.3150 C.3   223  CYS223      0.0983
    178  SG         8.8680  -13.8080   21.2030 S.3   223  CYS223     -0.0798
    179  N          9.9280  -11.9040   31.0500 N.3   229  TYR229     -0.1227
    180  CA         9.7520  -10.4970   30.7310 C.3   229  TYR229      0.1736
    181  C         10.6440  -10.0510   29.5840 C.2   229  TYR229      0.2596
    182  O         11.7070  -10.6110   29.3210 O.2   229  TYR229     -0.2718
    183  CB        10.0450   -9.6140   31.9620 C.3   229  TYR229      0.0548
    184  CG         9.1930  -10.0500   33.1390 C.ar  229  TYR229     -0.0200
    185  CD1        9.6500  -11.0440   33.9910 C.ar  229  TYR229     -0.0009
    186  CD2        7.9490   -9.4920   33.3760 C.ar  229  TYR229     -0.0009
    187  CE1        8.8900  -11.4640   35.0660 C.ar  229  TYR229      0.0417
    188  CE2        7.1800   -9.9050   34.4470 C.ar  229  TYR229      0.0417
    189  CZ         7.6570  -10.8930   35.2850 C.ar  229  TYR229      0.1957
    190  OH         6.8920  -11.2980   36.3530 O.3   229  TYR229     -0.2866
    191  N         10.2040   -9.0040   28.8900 N.am  230  GLY230     -0.1942
    192  CA        11.0180   -8.4580   27.8080 C.3   230  GLY230      0.2014
    193  C         12.1590   -7.6660   28.4280 C.2   230  GLY230      0.2639
    194  O         11.9370   -6.9980   29.4330 O.2   230  GLY230     -0.2714
    195  N         13.3480   -7.7580   27.8490 N.am  231  PHE231     -0.1959
    196  CA        14.4580   -6.9400   28.3110 C.3   231  PHE231      0.1771
    197  C         14.7410   -5.8810   27.2410 C.2   231  PHE231      0.2619
    198  O         14.6720   -6.1920   26.0610 O.2   231  PHE231     -0.2715
    199  CB        15.7150   -7.7560   28.6270 C.3   231  PHE231      0.0574
    200  CG        15.5710   -8.5070   29.9480 C.ar  231  PHE231     -0.0200
    201  CD1       14.8600   -9.6890   30.0030 C.ar  231  PHE231     -0.0042
    202  CD2       16.1420   -8.0160   31.1120 C.ar  231  PHE231     -0.0042
    203  CE1       14.7070  -10.3820   31.1880 C.ar  231  PHE231     -0.0003
    204  CE2       15.9820   -8.6920   32.3040 C.ar  231  PHE231     -0.0003
    205  CZ        15.2460   -9.8620   32.3510 C.ar  231  PHE231     -0.0000
    206  N         15.0230   -4.6820   27.7070 N.am  232  TYR232     -0.1974
    207  CA        15.3010   -3.4850   26.9550 C.3   232  TYR232      0.1639
    208  C         16.5930   -2.8260   27.4230 C.2   232  TYR232      0.2290
    209  O         16.8100   -2.7210   28.6320 O.2   232  TYR232     -0.2864
    210  CB        14.1200   -2.5080   27.1070 C.3   232  TYR232      0.0560
    211  CG        12.8050   -3.1680   26.7550 C.ar  232  TYR232     -0.0198
    212  CD1       12.1220   -3.9250   27.6890 C.ar  232  TYR232     -0.0009
    213  CD2       12.2500   -3.0440   25.4880 C.ar  232  TYR232     -0.0009
    214  CE1       10.9270   -4.5440   27.4160 C.ar  232  TYR232      0.0417
    215  CE2       11.0460   -3.6690   25.2050 C.ar  232  TYR232      0.0417
    216  CZ        10.3870   -4.4130   26.1560 C.ar  232  TYR232      0.1957
    217  OH         9.1870   -5.0380   25.8680 O.3   232  TYR232     -0.2866
@<TRIPOS>BOND
     1    26    25    2
     2    25    24    1
     3   122   120   ar
     4    24    27    1
     5    24    23    1
     6    27    28    1
     7   120   121   ar
     8   120   119    1
     9    14    13    2
    10    28    30   ar
    11    28    29   ar
    12    11    12    1
    13    33    30   ar
    14    33    35   ar
    15     4     3    2
    16    13    12    1
    17   117   116    2
    18    30    32   ar
    19   119   118    1
    20    29    31   ar
    21   116   115    1
    22    12    15    1
    23     3     2    1
    24   126   125    2
    25    15    16    1
    26    35    36   ar
    27   118   115    1
    28    32    31   ar
    29    32    34   ar
    30   127   128    1
    31   127   124    1
    32   115   114    1
    33   125   124    1
    34    18    16   ar
    35    18    20   ar
    36    36    34   ar
    37   123   124    1
    38    16    17   ar
    39     2     1    1
    40     2     5    1
    41     8    10   ar
    42     8     6   ar
    43   114   110   am
    44    10     9   ar
    45    20    21   ar
    46   111   110    2
    47     5     6    1
    48     6     7   ar
    49    17    19   ar
    50   110   109    1
    51    48    50   ar
    52    48    46   ar
    53    50    49   ar
    54   113   112    1
    55   113   178    1
    56   112   109    1
    57     9     7   ar
    58    45    46   ar
    59    45    43   ar
    60    46    44   ar
    61    49    47   ar
    62    21    19   ar
    63    21    22    1
    64   109   108    1
    65    43    42   ar
    66    44    47   ar
    67    44    42   ar
    68    42    41    1
    69   108   105   am
    70    41    38    1
    71    61    59    1
    72   132   131    2
    73   178   177    1
    74   133   135    1
    75   133   134    1
    76   133   130    1
    77   105   104    1
    78   105   106    2
    79    59    58    2
    80    59    60    1
    81   104   107    1
    82   104   103    1
    83   131   130    1
    84   131   136   am
    85   139   138    2
    86    58    57    1
    87    38    39    1
    88    38    37    1
    89   177   174    1
    90   129   130    1
    91    98    97    2
    92    85    84    1
    93    40    39    2
    94    39    51   am
    95    86    84    1
    96    56    57    1
    97    56    55    1
    98   137   138    1
    99   137   136    1
   100   137   140    1
   101    84    83    1
   102   138   142   am
   103    51    52    1
   104   103    97   am
   105    97    96    1
   106   174   173    1
   107   174   175    1
   108   173   171   am
   109    52    55    1
   110    52    53    1
   111   141   140    1
   112   171   170    1
   113   171   172    2
   114   170   169    1
   115   143   142    1
   116   143   146    1
   117   143   144    1
   118   176   175    2
   119   146   147    1
   120    83    80    1
   121    96    95    1
   122    96    99    1
   123   169   162   am
   124   159   158    2
   125    53    54    2
   126    53    62   am
   127    80    81    1
   128    80    79    1
   129   144   156   am
   130   144   145    2
   131   156   157    1
   132   215   213   ar
   133   215   216   ar
   134    99   100    1
   135   101   100   ar
   136   213   211   ar
   137   100   102   ar
   138    82    81    2
   139   158   157    1
   140   158   160   am
   141   217   216    1
   142    79    73   am
   143    62    63    1
   144   147   148   ar
   145   147   149   ar
   146   198   197    2
   147   162   161    1
   148   162   163    2
   149   216   214   ar
   150   148   150   ar
   151   161   160    1
   152   161   164    1
   153   211   210    1
   154   211   212   ar
   155    73    74    2
   156    73    72    1
   157    65    64    2
   158   207   210    1
   159   207   208    1
   160   207   206    1
   161    63    64    1
   162    63    66    1
   163    64    71   am
   164   149   152   ar
   165   149   151   ar
   166   197   206   am
   167   197   196    1
   168    71    72    1
   169   152   154   ar
   170   214   212   ar
   171   208   209    2
   172   150   151   ar
   173    72    75    1
   174   164   165    1
   175   192   193    1
   176   192   191    1
   177   195   196    1
   178   195   193   am
   179   165   166    1
   180   151   153   ar
   181   196   199    1
   182    66    67    1
   183   193   194    2
   184   199   200    1
   185   154   155   ar
   186    77    76    2
   187   191   181   am
   188    75    76    1
   189    94    92    1
   190   182   181    2
   191   166   167   ar
   192   166   168   ar
   193   153   155   ar
   194   181   180    1
   195    76    78   am
   196    67    68    1
   197   200   201   ar
   198   200   202   ar
   199   201   203   ar
   200    92    91    1
   201    93    91    1
   202   180   179    1
   203   180   183    1
   204    69    68   ar
   205    68    70   ar
   206   202   204   ar
   207    91    88    1
   208   203   205   ar
   209   183   184    1
   210   204   205   ar
   211    88    87    1
   212    88    89    1
   213   184   186   ar
   214   184   185   ar
   215    89    90    2
   216   186   188   ar
   217   185   187   ar
   218   188   189   ar
   219   187   189   ar
   220   189   190    1
