@<TRIPOS>MOLECULE
tmp/2zhkA00.pdb
 176 163 0 0 0
SMALL
GASTEIGER

@<TRIPOS>ATOM
      1  N         18.3960   30.1830   10.3110 N.3    10  PRO10      -0.2116
      2  CA        18.7950   31.5360   10.7290 C.3    10  PRO10       0.1372
      3  C         19.9460   31.5850   11.7750 C.2    10  PRO10       0.2244
      4  O         20.0140   30.7510   12.6920 O.2    10  PRO10      -0.2868
      5  CB        17.4690   32.1460   11.2550 C.3    10  PRO10       0.0268
      6  CG        16.6770   30.9600   11.6820 C.3    10  PRO10       0.0207
      7  CD        17.0070   29.8610   10.7190 C.3    10  PRO10       0.0892
      8  N         13.7310   35.2890   -0.7770 N.3    38  ARG38      -0.1245
      9  CA        14.5160   36.3700   -0.1440 C.3    38  ARG38       0.1563
     10  C         15.4970   35.8650    0.8860 C.2    38  ARG38       0.2260
     11  O         15.3120   34.7540    1.4310 O.2    38  ARG38      -0.2867
     12  CB        13.6220   37.4790    0.4500 C.3    38  ARG38       0.0307
     13  CG        12.2980   37.1000    1.0090 C.3    38  ARG38       0.0489
     14  CD        11.5520   38.3890    1.4590 C.3    38  ARG38       0.2205
     15  NE        10.5590   38.9340    0.5210 N.pl3  38  ARG38      -0.0865
     16  CZ         9.7080   39.9160    0.8350 C.cat  38  ARG38       0.5346
     17  NH1        9.7340   40.4610    2.0560 N.pl3  38  ARG38       0.1354
     18  NH2        8.8300   40.3660   -0.0590 N.pl3  38  ARG38       0.1354
     19  N         18.4660   37.7530    4.0560 N.3    40  ALA40      -0.1245
     20  CA        18.8510   39.0240    4.6390 C.3    40  ALA40       0.1562
     21  C         20.1070   38.8430    5.4260 C.2    40  ALA40       0.2260
     22  O         20.2860   37.7860    6.0950 O.2    40  ALA40      -0.2867
     23  CB        17.7350   39.5850    5.5750 C.3    40  ALA40       0.0290
     24  N         21.7690   41.1180    8.4470 N.3    42  ASN42      -0.1240
     25  CA        21.4180   42.2130    9.3660 C.3    42  ASN42       0.1653
     26  C         22.5720   42.5450   10.2770 C.2    42  ASN42       0.2266
     27  O         23.1960   41.6350   10.8340 O.2    42  ASN42      -0.2867
     28  CB        20.2370   41.7990   10.2470 C.3    42  ASN42       0.1155
     29  CG        18.9870   41.5710    9.4570 C.2    42  ASN42       0.2627
     30  OD1       18.2950   40.5560    9.6200 O.2    42  ASN42      -0.2716
     31  ND2       18.6970   42.4760    8.5740 N.am   42  ASN42      -0.0877
     32  N         23.0730   44.4800   13.6640 N.3    44  GLN44      -0.1245
     33  CA        22.1610   44.8930   14.6900 C.3    44  GLN44       0.1566
     34  C         22.8370   45.0350   16.0530 C.2    44  GLN44       0.2260
     35  O         24.0360   44.7110   16.2400 O.2    44  GLN44      -0.2867
     36  CB        20.9790   43.9360   14.7800 C.3    44  GLN44       0.0367
     37  CG        21.3540   42.4780   15.0480 C.3    44  GLN44       0.0905
     38  CD        20.1920   41.5510   14.8310 C.2    44  GLN44       0.2608
     39  OE1       19.6580   41.4290   13.7220 O.2    44  GLN44      -0.2717
     40  NE2       19.7960   40.8710   15.8770 N.am   44  GLN44      -0.0878
     41  N         20.6960   40.7600   20.2560 N.3    47  PHE47      -0.1227
     42  CA        20.1150   39.5630   19.6370 C.3    47  PHE47       0.1736
     43  C         18.6190   39.6950   19.3440 C.2    47  PHE47       0.2596
     44  O         18.0280   38.8140   18.7390 O.2    47  PHE47      -0.2718
     45  CB        20.4460   38.2880   20.4940 C.3    47  PHE47       0.0547
     46  CG        21.9160   37.8790   20.4700 C.ar   47  PHE47      -0.0202
     47  CD1       22.4520   37.1700   19.3820 C.ar   47  PHE47      -0.0042
     48  CD2       22.7470   38.1660   21.5400 C.ar   47  PHE47      -0.0042
     49  CE1       23.8030   36.8010   19.3610 C.ar   47  PHE47      -0.0003
     50  CE2       24.1120   37.8180   21.5250 C.ar   47  PHE47      -0.0003
     51  CZ        24.6370   37.1140   20.4100 C.ar   47  PHE47      -0.0000
     52  N         17.9930   40.8110   19.7010 N.am   48  SER48      -0.1938
     53  CA        16.5460   40.9420   19.5430 C.3    48  SER48       0.2055
     54  C         16.0110   41.1100   18.1020 C.2    48  SER48       0.2643
     55  O         14.9590   40.5870   17.7880 O.2    48  SER48      -0.2714
     56  CB        16.0020   42.0680   20.4210 C.3    48  SER48       0.2130
     57  OG        16.0690   43.3340   19.7850 O.3    48  SER48      -0.2179
     58  N         16.7160   41.8510   17.2570 N.am   49  GLY49      -0.1954
     59  CA        16.2270   42.1600   15.8990 C.3    49  GLY49       0.1869
     60  C         15.2800   43.3650   15.8060 C.2    49  GLY49       0.2309
     61  O         14.7160   43.6500   14.7450 O.2    49  GLY49      -0.2863
     62  N         17.9680   47.0590   14.0330 N.3    52  ILE52      -0.1245
     63  CA        18.8410   46.6490   12.9610 C.3    52  ILE52       0.1561
     64  C         19.3390   47.8990   12.2700 C.2    52  ILE52       0.2260
     65  O         18.5680   48.5830   11.5940 O.2    52  ILE52      -0.2867
     66  CB        18.1030   45.7550   11.9690 C.3    52  ILE52       0.0252
     67  CG1       17.4850   44.5410   12.6980 C.3    52  ILE52       0.0019
     68  CG2       19.0950   45.2890   10.8390 C.3    52  ILE52       0.0019
     69  CD1       16.4700   43.7920   11.8430 C.3    52  ILE52       0.0001
     70  N         19.9670   46.4610    7.3540 N.3    55  HIS55      -0.1241
     71  CA        19.2960   45.2760    6.8150 C.3    55  HIS55       0.1621
     72  C         19.5490   45.3060    5.2920 C.2    55  HIS55       0.2264
     73  O         19.1490   46.2520    4.5990 O.2    55  HIS55      -0.2867
     74  CB        17.8220   45.4670    7.1180 C.3    55  HIS55       0.0745
     75  CG        16.8620   44.5140    6.4450 C.ar   55  HIS55       0.0817
     76  ND1       16.7360   43.1950    6.8220 N.ar   55  HIS55      -0.2268
     77  CD2       15.8560   44.7390    5.5600 C.ar   55  HIS55       0.1154
     78  CE1       15.7580   42.6280    6.1380 C.ar   55  HIS55       0.1986
     79  NE2       15.1930   43.5490    5.3770 N.ar   55  HIS55      -0.2212
     80  N         18.7880   43.1120    2.0070 N.3    57  ASN57      -0.1240
     81  CA        17.7200   42.1220    1.7860 C.3    57  ASN57       0.1653
     82  C         17.4190   41.9100    0.2840 C.2    57  ASN57       0.2266
     83  O         16.4930   42.5130   -0.2720 O.2    57  ASN57      -0.2867
     84  CB        16.4580   42.5610    2.5880 C.3    57  ASN57       0.1155
     85  CG        15.2340   41.7070    2.3430 C.2    57  ASN57       0.2627
     86  OD1       15.2690   40.4380    2.3350 O.2    57  ASN57      -0.2716
     87  ND2       14.0940   42.3770    2.2900 N.am   57  ASN57      -0.0877
     88  N         15.7460   40.2910   -2.8160 N.3    59  ARG59      -0.1245
     89  CA        14.4590   39.6660   -3.0380 C.3    59  ARG59       0.1563
     90  C         14.3900   39.2130   -4.4620 C.2    59  ARG59       0.2260
     91  O         14.4800   40.0290   -5.3820 O.2    59  ARG59      -0.2867
     92  CB        13.3320   40.6630   -2.7470 C.3    59  ARG59       0.0307
     93  CG        13.3870   41.2100   -1.3050 C.3    59  ARG59       0.0489
     94  CD        12.1240   42.0000   -0.9900 C.3    59  ARG59       0.2205
     95  NE        12.1200   42.5460    0.3640 N.pl3  59  ARG59      -0.0865
     96  CZ        11.2040   43.4010    0.8370 C.cat  59  ARG59       0.5346
     97  NH1       10.2270   43.8560    0.0310 N.pl3  59  ARG59       0.1354
     98  NH2       11.3130   43.8620    2.0910 N.pl3  59  ARG59       0.1354
     99  N         16.4690   45.2850   -1.0570 N.3    67  VAL67      -0.1245
    100  CA        16.0260   46.3070   -0.0910 C.3    67  VAL67       0.1561
    101  C         17.1800   46.6060    0.8920 C.2    67  VAL67       0.2260
    102  O         17.7780   45.6840    1.4970 O.2    67  VAL67      -0.2867
    103  CB        14.7020   45.8650    0.6460 C.3    67  VAL67       0.0252
    104  CG1       14.2720   46.9140    1.7060 C.3    67  VAL67       0.0019
    105  CG2       13.5630   45.6180   -0.3270 C.3    67  VAL67       0.0019
    106  N         17.6000   48.8370    4.4990 N.3    69  ASN69      -0.1240
    107  CA        16.7580   49.6000    5.4270 C.3    69  ASN69       0.1653
    108  C         17.3170   49.5490    6.8490 C.2    69  ASN69       0.2266
    109  O         18.3230   48.9000    7.1130 O.2    69  ASN69      -0.2867
    110  CB        15.2950   49.1340    5.3490 C.3    69  ASN69       0.1155
    111  CG        14.3020   50.1860    5.8130 C.2    69  ASN69       0.2627
    112  OD1       14.6960   51.2760    6.2390 O.2    69  ASN69      -0.2716
    113  ND2       13.0080   49.8550    5.7630 N.am   69  ASN69      -0.0877
    114  N         15.9060   49.3330   11.0210 N.3    71  ARG71      -0.1245
    115  CA        14.8110   49.1460   11.9650 C.3    71  ARG71       0.1563
    116  C         15.2380   49.8220   13.2550 C.2    71  ARG71       0.2260
    117  O         16.3300   49.5810   13.7470 O.2    71  ARG71      -0.2867
    118  CB        14.5530   47.6760   12.2500 C.3    71  ARG71       0.0307
    119  CG        13.2090   47.4200   12.8650 C.3    71  ARG71       0.0489
    120  CD        13.0250   45.9800   13.1420 C.3    71  ARG71       0.2205
    121  NE        11.6240   45.7300   13.4510 N.pl3  71  ARG71      -0.0865
    122  CZ        11.1430   44.5430   13.7890 C.cat  71  ARG71       0.5346
    123  NH1       11.9560   43.4820   13.8320 N.pl3  71  ARG71       0.1354
    124  NH2        9.8460   44.4210   14.0580 N.pl3  71  ARG71       0.1354
    125  N         10.4920   49.8740   11.0350 N.3    76  TRP76      -0.1241
    126  CA        11.2400   49.9960    9.7810 C.3    76  TRP76       0.1605
    127  C         11.2040   51.4310    9.2610 C.2    76  TRP76       0.2264
    128  O         10.1530   52.0850    9.2940 O.2    76  TRP76      -0.2867
    129  CB        10.7080   49.0190    8.7220 C.3    76  TRP76       0.0550
    130  CG        11.0850   47.5820    9.0120 C.ar   76  TRP76       0.0003
    131  CD1       10.2580   46.5680    9.4130 C.ar   76  TRP76       0.0946
    132  CD2       12.3980   47.0300    8.9430 C.ar   76  TRP76       0.0152
    133  NE1       10.9810   45.4010    9.5770 N.ar   76  TRP76      -0.2442
    134  CE2       12.3010   45.6640    9.3010 C.ar   76  TRP76       0.0810
    135  CE3       13.6480   47.5500    8.5880 C.ar   76  TRP76       0.0012
    136  CZ2       13.4160   44.8200    9.3350 C.ar   76  TRP76       0.0191
    137  CZ3       14.7690   46.7130    8.6400 C.ar   76  TRP76       0.0001
    138  CH2       14.6380   45.3570    8.9960 C.ar   76  TRP76       0.0015
    139  N         12.6540   52.5400    2.9410 N.3    79  GLU79      -0.1245
    140  CA        13.5070   51.6010    2.2060 C.3    79  GLU79       0.1567
    141  C         14.3260   52.3290    1.1610 C.2    79  GLU79       0.2260
    142  O         13.8210   53.2490    0.5170 O.2    79  GLU79      -0.2867
    143  CB        12.6510   50.5370    1.5240 C.3    79  GLU79       0.0388
    144  CG        11.9910   49.5720    2.5410 C.3    79  GLU79       0.1160
    145  CD        11.1050   48.5070    1.9100 C.2    79  GLU79       0.3649
    146  OE1       10.9860   48.4510    0.6500 O.co2  79  GLU79      -0.2457
    147  OE2       10.5580   47.6780    2.6830 O.co2  79  GLU79      -0.2457
    148  N         15.7180   51.0430   -2.1610 N.3    81  ARG81      -0.1245
    149  CA        15.7180   49.8630   -3.0540 C.3    81  ARG81       0.1563
    150  C         16.6970   50.0280   -4.1830 C.2    81  ARG81       0.2260
    151  O         16.7990   51.0970   -4.8020 O.2    81  ARG81      -0.2867
    152  CB        14.3370   49.5390   -3.5960 C.3    81  ARG81       0.0307
    153  CG        13.3720   49.1310   -2.5340 C.3    81  ARG81       0.0489
    154  CD        11.9850   48.9330   -3.1030 C.3    81  ARG81       0.2205
    155  NE        11.1500   48.3270   -2.0710 N.pl3  81  ARG81      -0.0865
    156  CZ        10.0510   47.6160   -2.2800 C.cat  81  ARG81       0.5346
    157  NH1        9.6030   47.4190   -3.5090 N.pl3  81  ARG81       0.1354
    158  NH2        9.4210   47.0670   -1.2450 N.pl3  81  ARG81       0.1354
    159  N         23.3140   38.9070   11.8910 N.3   129  SER129     -0.1217
    160  CA        22.3230   37.8790   11.7640 C.3   129  SER129      0.1889
    161  C         22.0580   37.6290   10.3000 C.2   129  SER129      0.2288
    162  O         22.1570   38.5420    9.4810 O.2   129  SER129     -0.2866
    163  CB        21.0180   38.2490   12.4590 C.3   129  SER129      0.2089
    164  OG        21.2710   38.5440   13.8150 O.3   129  SER129     -0.2183
    165  N         19.2320   35.3940    7.7170 N.3   131  ASN131     -0.1225
    166  CA        18.0310   34.5820    7.5870 C.3   131  ASN131      0.1785
    167  C         17.5990   34.4040    6.1330 C.2   131  ASN131      0.2597
    168  O         18.0910   35.1100    5.2560 O.2   131  ASN131     -0.2718
    169  CB        16.8840   35.1260    8.4270 C.3   131  ASN131      0.1169
    170  CG        16.4800   36.5290    8.0300 C.2   131  ASN131      0.2627
    171  OD1       15.8960   36.7210    6.9830 O.2   131  ASN131     -0.2716
    172  ND2       16.7640   37.5020    8.8880 N.am  131  ASN131     -0.0877
    173  N         16.7000   33.4470    5.8790 N.am  132  GLY132     -0.1957
    174  CA        16.1140   33.2910    4.5640 C.3   132  GLY132      0.1869
    175  C         16.7790   32.2400    3.7020 C.2   132  GLY132      0.2309
    176  O         17.4200   31.2980    4.2250 O.2   132  GLY132     -0.2863
@<TRIPOS>BOND
     1    91    90    2
     2   151   150    2
     3    90    89    1
     4   150   149    1
     5   152   149    1
     6   152   153    1
     7   157   156    1
     8   154   153    1
     9   154   155    1
    10   149   148    1
    11    89    88    1
    12    89    92    1
    13    92    93    1
    14   156   155    2
    15   156   158    1
    16    93    94    1
    17    99   100    1
    18    94    95    1
    19     8     9    1
    20   105   103    1
    21    83    82    2
    22     9    12    1
    23     9    10    1
    24   100   103    1
    25   100   101    1
    26    18    16    1
    27    97    96    1
    28    82    81    1
    29    95    96    2
    30    12    13    1
    31   142   141    2
    32    15    16    2
    33    15    14    1
    34   103   104    1
    35   146   145   ar
    36    16    17    1
    37    96    98    1
    38    10    11    2
    39   101   102    2
    40    13    14    1
    41   141   140    1
    42   143   140    1
    43   143   144    1
    44    81    80    1
    45    81    84    1
    46   145   144    1
    47   145   147   ar
    48   140   139    1
    49    87    85   am
    50    86    85    2
    51    85    84    1
    52   175   176    2
    53   175   174    1
    54    19    20    1
    55   106   107    1
    56   174   173    1
    57    73    72    2
    58    20    21    1
    59    20    23    1
    60   168   167    2
    61    72    71    1
    62   110   107    1
    63   110   111    1
    64    79    77   ar
    65    79    78   ar
    66    21    22    2
    67   107   108    1
    68    77    75   ar
    69   113   111   am
    70   111   112    2
    71   173   167   am
    72   167   166    1
    73    78    76   ar
    74    75    76   ar
    75    75    74    1
    76    71    74    1
    77    71    70    1
    78   108   109    2
    79   171   170    2
    80   166   165    1
    81   166   169    1
    82   170   169    1
    83   170   172   am
    84    24    25    1
    85    31    29   am
    86   135   137   ar
    87   135   132   ar
    88   137   138   ar
    89   129   130    1
    90   129   126    1
    91   132   130   ar
    92   132   134   ar
    93   138   136   ar
    94   130   131   ar
    95   127   128    2
    96   127   126    1
    97   134   136   ar
    98   134   133   ar
    99    25    28    1
   100    25    26    1
   101   131   133   ar
   102    29    30    2
   103    29    28    1
   104   162   161    2
   105   126   125    1
   106    26    27    2
   107   161   160    1
   108     1     7    1
   109     1     2    1
   110     7     6    1
   111     2     5    1
   112     2     3    1
   113    68    66    1
   114   114   115    1
   115     5     6    1
   116    65    64    2
   117   160   159    1
   118   160   163    1
   119     3     4    2
   120    69    67    1
   121   115   118    1
   122   115   116    1
   123    66    67    1
   124    66    63    1
   125   118   119    1
   126    64    63    1
   127   163   164    1
   128   119   120    1
   129    63    62    1
   130   120   121    1
   131   116   117    2
   132   121   122    2
   133    32    33    1
   134    39    38    2
   135   122   123    1
   136   122   124    1
   137    33    36    1
   138    33    34    1
   139    61    60    2
   140    36    37    1
   141    38    37    1
   142    38    40   am
   143    60    59    1
   144    59    58    1
   145    34    35    2
   146    58    54   am
   147    55    54    2
   148    54    53    1
   149    44    43    2
   150    43    42    1
   151    43    52   am
   152    49    47   ar
   153    49    51   ar
   154    47    46   ar
   155    53    52    1
   156    53    56    1
   157    42    41    1
   158    42    45    1
   159    57    56    1
   160    51    50   ar
   161    46    45    1
   162    46    48   ar
   163    50    48   ar
