@<TRIPOS>MOLECULE
tmp/2zhmB01.pdb
 201 189 0 0 0
SMALL
GASTEIGER

@<TRIPOS>ATOM
      1  N         -0.9100   26.4810   25.3170 N.3    10  PRO10      -0.2102
      2  CA        -0.6220   26.9270   23.9460 C.3    10  PRO10       0.1504
      3  C          0.4310   28.0250   23.9140 C.2    10  PRO10       0.2576
      4  O          0.4510   28.9250   24.7800 O.2    10  PRO10      -0.2718
      5  CB        -1.9810   27.4370   23.4320 C.3    10  PRO10       0.0282
      6  CG        -2.7170   27.7840   24.6270 C.3    10  PRO10       0.0208
      7  CD        -2.2580   26.9040   25.7380 C.3    10  PRO10       0.0893
      8  N          1.3140   27.9150   22.9270 N.am   11  PHE11      -0.1963
      9  CA         2.4930   28.7610   22.8170 C.3    11  PHE11       0.1771
     10  C          2.4820   29.5120   21.5050 C.2    11  PHE11       0.2620
     11  O          2.1700   28.9440   20.4640 O.2    11  PHE11      -0.2715
     12  CB         3.7680   27.9100   22.8710 C.3    11  PHE11       0.0574
     13  CG         5.0250   28.6730   22.5200 C.ar   11  PHE11      -0.0200
     14  CD1        5.6100   29.5410   23.4410 C.ar   11  PHE11      -0.0042
     15  CD2        5.6020   28.5350   21.2580 C.ar   11  PHE11      -0.0042
     16  CE1        6.7770   30.2690   23.1090 C.ar   11  PHE11      -0.0003
     17  CE2        6.7580   29.2760   20.9040 C.ar   11  PHE11      -0.0003
     18  CZ         7.3380   30.1310   21.8380 C.ar   11  PHE11      -0.0000
     19  N          2.8420   30.7890   21.5580 N.am   12  SER12      -0.1950
     20  CA         3.1460   31.5470   20.3530 C.3    12  SER12       0.1924
     21  C          4.4420   32.3230   20.5890 C.2    12  SER12       0.2314
     22  O          4.6400   32.9300   21.6570 O.2    12  SER12      -0.2863
     23  CB         1.9950   32.4800   19.9710 C.3    12  SER12       0.2116
     24  OG         0.8940   31.7330   19.4700 O.3    12  SER12      -0.2180
     25  N         -4.8600   15.3290   19.8930 N.3    38  ARG38      -0.1245
     26  CA        -4.1120   15.9400   18.7800 C.3    38  ARG38       0.1563
     27  C         -3.2480   17.1010   19.2560 C.2    38  ARG38       0.2260
     28  O         -3.5380   17.7130   20.2830 O.2    38  ARG38      -0.2867
     29  CB        -5.0660   16.4200   17.6560 C.3    38  ARG38       0.0307
     30  CG        -6.2600   17.2420   18.1280 C.3    38  ARG38       0.0489
     31  CD        -7.0970   17.7910   16.9720 C.3    38  ARG38       0.2205
     32  NE        -7.9350   16.7980   16.3000 N.pl3  38  ARG38      -0.0865
     33  CZ        -8.8340   17.1010   15.3620 C.cat  38  ARG38       0.5346
     34  NH1       -9.0360   18.3670   14.9940 N.pl3  38  ARG38       0.1354
     35  NH2       -9.5560   16.1450   14.8110 N.pl3  38  ARG38       0.1354
     36  N         -0.5840   20.4590   17.3900 N.3    40  ALA40      -0.1245
     37  CA        -0.1440   21.0680   16.1450 C.3    40  ALA40       0.1562
     38  C          1.0700   21.9250   16.3700 C.2    40  ALA40       0.2260
     39  O          1.2330   22.5110   17.4360 O.2    40  ALA40      -0.2867
     40  CB        -1.2530   21.8970   15.4990 C.3    40  ALA40       0.0290
     41  N          2.6100   25.0870   14.2050 N.3    42  ASN42      -0.1240
     42  CA         2.2160   26.0090   13.1690 C.3    42  ASN42       0.1653
     43  C          3.3090   27.0370   12.8720 C.2    42  ASN42       0.2266
     44  O          3.8210   27.6890   13.7860 O.2    42  ASN42      -0.2867
     45  CB         0.9880   26.8020   13.6270 C.3    42  ASN42       0.1155
     46  CG        -0.2200   25.9150   13.9100 C.2    42  ASN42       0.2627
     47  OD1       -0.8250   25.9840   14.9900 O.2    42  ASN42      -0.2716
     48  ND2       -0.6040   25.1280   12.9340 N.am   42  ASN42      -0.0877
     49  N          3.4810   30.4870   11.1330 N.3    44  GLN44      -0.1245
     50  CA         2.3870   31.3950   10.7970 C.3    44  GLN44       0.1566
     51  C          2.8360   32.8420   10.7880 C.2    44  GLN44       0.2260
     52  O          3.9840   33.1490   11.1450 O.2    44  GLN44      -0.2867
     53  CB         1.1870   31.1900   11.7430 C.3    44  GLN44       0.0367
     54  CG         1.4940   31.2620   13.2310 C.3    44  GLN44       0.0905
     55  CD         0.2880   30.9180   14.1140 C.2    44  GLN44       0.2608
     56  OE1       -0.2390   29.7950   14.0930 O.2    44  GLN44      -0.2717
     57  NE2       -0.1280   31.8820   14.9260 N.am   44  GLN44      -0.0878
     58  N          0.2150   36.1240   15.7050 N.3    47  PHE47      -0.1227
     59  CA        -0.2580   35.2110   16.7500 C.3    47  PHE47       0.1736
     60  C         -1.6880   34.7180   16.5850 C.2    47  PHE47       0.2596
     61  O         -2.1270   33.9010   17.3780 O.2    47  PHE47      -0.2718
     62  CB        -0.1320   35.8490   18.1480 C.3    47  PHE47       0.0547
     63  CG         1.2890   36.1010   18.6120 C.ar   47  PHE47      -0.0202
     64  CD1        2.3880   35.6220   17.9120 C.ar   47  PHE47      -0.0042
     65  CD2        1.5140   36.8070   19.7900 C.ar   47  PHE47      -0.0042
     66  CE1        3.6950   35.8580   18.3700 C.ar   47  PHE47      -0.0003
     67  CE2        2.8160   37.0410   20.2610 C.ar   47  PHE47      -0.0003
     68  CZ         3.9030   36.5600   19.5500 C.ar   47  PHE47      -0.0000
     69  N         -2.4240   35.2260   15.6000 N.am   48  SER48      -0.1938
     70  CA        -3.8630   34.9440   15.5110 C.3    48  SER48       0.2055
     71  C         -4.2250   33.4990   15.1260 C.2    48  SER48       0.2644
     72  O         -5.2020   32.9480   15.6450 O.2    48  SER48      -0.2714
     73  CB        -4.5580   35.9220   14.5670 C.3    48  SER48       0.2130
     74  OG        -4.2850   35.6310   13.2090 O.3    48  SER48      -0.2179
     75  N         -3.4490   32.9090   14.2180 N.am   49  GLY49      -0.1939
     76  CA        -3.7820   31.6020   13.6370 C.3    49  GLY49       0.2014
     77  C         -4.6930   31.6440   12.4160 C.2    49  GLY49       0.2638
     78  O         -5.0720   30.6130   11.8910 O.2    49  GLY49      -0.2714
     79  N         -5.0460   32.8350   11.9480 N.am   50  ASN50      -0.1972
     80  CA        -5.7860   32.9700   10.6830 C.3    50  ASN50       0.1688
     81  C         -4.9160   32.7910    9.4330 C.2    50  ASN50       0.2292
     82  O         -5.4220   32.5160    8.3360 O.2    50  ASN50      -0.2864
     83  CB        -6.5300   34.3100   10.6260 C.3    50  ASN50       0.1181
     84  CG        -7.7120   34.3610   11.5790 C.2    50  ASN50       0.2629
     85  OD1       -8.2510   33.3240   11.9850 O.2    50  ASN50      -0.2716
     86  ND2       -8.1120   35.5720   11.9570 N.am   50  ASN50      -0.0877
     87  N         -1.6130   30.6240    8.4650 N.3    52  ILE52      -0.1245
     88  CA        -0.6410   29.6150    8.8640 C.3    52  ILE52       0.1561
     89  C         -0.0960   29.0470    7.5650 C.2    52  ILE52       0.2260
     90  O         -0.8220   28.3480    6.8470 O.2    52  ILE52      -0.2867
     91  CB        -1.3230   28.4670    9.6880 C.3    52  ILE52       0.0252
     92  CG1       -1.9960   29.0060   10.9630 C.3    52  ILE52       0.0019
     93  CG2       -0.2930   27.3780   10.0420 C.3    52  ILE52       0.0019
     94  CD1       -2.9430   27.9820   11.6930 C.3    52  ILE52       0.0001
     95  N          0.8330   24.0480    8.7880 N.3    55  HIS55      -0.1241
     96  CA         0.1670   23.5110    9.9560 C.3    55  HIS55       0.1621
     97  C          0.5370   22.0280    9.9500 C.2    55  HIS55       0.2264
     98  O          0.2160   21.3340    8.9890 O.2    55  HIS55      -0.2867
     99  CB        -1.3480   23.7040    9.7380 C.3    55  HIS55       0.0745
    100  CG        -2.2320   22.9870   10.7180 C.ar   55  HIS55       0.0817
    101  ND1       -2.3530   23.3550   12.0440 N.ar   55  HIS55      -0.2268
    102  CD2       -3.0950   21.9570   10.5350 C.ar   55  HIS55       0.1154
    103  CE1       -3.2450   22.5740   12.6370 C.ar   55  HIS55       0.1986
    104  NE2       -3.7240   21.7310   11.7350 N.ar   55  HIS55      -0.2212
    105  N          0.0200   18.6180   12.0170 N.3    57  ASN57      -0.1240
    106  CA        -1.0150   18.2630   12.9980 C.3    57  ASN57       0.1653
    107  C         -1.2320   16.7500   13.2310 C.2    57  ASN57       0.2266
    108  O         -2.1080   16.1700   12.6100 O.2    57  ASN57      -0.2867
    109  CB        -2.3060   18.9120   12.4950 C.3    57  ASN57       0.1155
    110  CG        -3.5180   18.6510   13.3700 C.2    57  ASN57       0.2627
    111  OD1       -3.4530   18.5630   14.6130 O.2    57  ASN57      -0.2716
    112  ND2       -4.6460   18.6190   12.7290 N.am   57  ASN57      -0.0877
    113  N         -2.7600   13.5280   14.7780 N.3    59  ARG59      -0.1245
    114  CA        -4.0520   13.2300   15.3800 C.3    59  ARG59       0.1563
    115  C         -4.0870   11.7640   15.7930 C.2    59  ARG59       0.2260
    116  O         -3.9690   10.8860   14.9520 O.2    59  ARG59      -0.2867
    117  CB        -5.1580   13.4960   14.3680 C.3    59  ARG59       0.0307
    118  CG        -5.2360   14.9980   13.9370 C.3    59  ARG59       0.0489
    119  CD        -6.4540   15.1930   13.0460 C.3    59  ARG59       0.2205
    120  NE        -6.5900   16.5920   12.6320 N.pl3  59  ARG59      -0.0865
    121  CZ        -7.4720   17.0170   11.7420 C.cat  59  ARG59       0.5346
    122  NH1       -8.3450   16.1530   11.1950 N.pl3  59  ARG59       0.1354
    123  NH2       -7.4990   18.3150   11.4200 N.pl3  59  ARG59       0.1354
    124  N         -2.0330   15.5100    9.7250 N.3    67  VAL67      -0.1245
    125  CA        -2.5650   16.4480    8.7480 C.3    67  VAL67       0.1561
    126  C         -1.5280   17.5330    8.5550 C.2    67  VAL67       0.2260
    127  O         -0.9660   18.0350    9.5260 O.2    67  VAL67      -0.2867
    128  CB        -3.8980   17.1050    9.2440 C.3    67  VAL67       0.0252
    129  CG1       -4.3690   18.2230    8.2980 C.3    67  VAL67       0.0019
    130  CG2       -4.9780   16.0620    9.4360 C.3    67  VAL67       0.0019
    131  N         -1.3830   21.2090    6.4050 N.3    69  ASN69      -0.1240
    132  CA        -2.2170   22.1140    5.6410 C.3    69  ASN69       0.1653
    133  C         -1.6830   23.5520    5.7610 C.2    69  ASN69       0.2266
    134  O         -0.6310   23.8210    6.3910 O.2    69  ASN69      -0.2867
    135  CB        -3.7060   22.0420    6.0960 C.3    69  ASN69       0.1155
    136  CG        -4.6910   22.4130    4.9990 C.2    69  ASN69       0.2627
    137  OD1       -4.3270   22.9020    3.9240 O.2    69  ASN69      -0.2716
    138  ND2       -5.9780   22.2050    5.2850 N.am   69  ASN69      -0.0877
    139  N         -3.3850   27.6490    6.0890 N.3    71  ARG71      -0.1245
    140  CA        -4.5660   28.4950    6.2180 C.3    71  ARG71       0.1563
    141  C         -4.2020   29.8860    5.6840 C.2    71  ARG71       0.2260
    142  O         -3.1620   30.4330    6.0480 O.2    71  ARG71      -0.2867
    143  CB        -4.9830   28.5680    7.6790 C.3    71  ARG71       0.0307
    144  CG        -6.4250   29.0300    7.9260 C.3    71  ARG71       0.0489
    145  CD        -6.6430   29.1370    9.3990 C.3    71  ARG71       0.2205
    146  NE        -8.0590   29.2450    9.6980 N.pl3  71  ARG71      -0.0865
    147  CZ        -8.5850   29.3060   10.9190 C.cat  71  ARG71       0.5346
    148  NH1       -7.8250   29.2750   12.0010 N.pl3  71  ARG71       0.1354
    149  NH2       -9.9080   29.4000   11.0500 N.pl3  71  ARG71       0.1354
    150  N         -8.8330   27.1960    5.3950 N.3    76  TRP76      -0.1241
    151  CA        -7.9890   26.0300    5.2010 C.3    76  TRP76       0.1605
    152  C         -7.9970   25.5450    3.7630 C.2    76  TRP76       0.2264
    153  O         -9.0570   25.5320    3.0970 O.2    76  TRP76      -0.2867
    154  CB        -8.4690   24.9020    6.1140 C.3    76  TRP76       0.0550
    155  CG        -8.2130   25.1530    7.5680 C.ar   76  TRP76       0.0003
    156  CD1       -9.1380   25.4030    8.5410 C.ar   76  TRP76       0.0946
    157  CD2       -6.9370   25.1430    8.2200 C.ar   76  TRP76       0.0152
    158  NE1       -8.5130   25.5610    9.7610 N.ar   76  TRP76      -0.2442
    159  CE2       -7.1640   25.4060    9.5910 C.ar   76  TRP76       0.0810
    160  CE3       -5.6300   24.9230    7.7810 C.ar   76  TRP76       0.0012
    161  CZ2       -6.1230   25.4620   10.5250 C.ar   76  TRP76       0.0191
    162  CZ3       -4.6010   24.9960    8.7010 C.ar   76  TRP76       0.0001
    163  CH2       -4.8510   25.2410   10.0520 C.ar   76  TRP76       0.0015
    164  N         -6.1950   19.3020    2.6620 N.3    79  GLU79      -0.1245
    165  CA        -5.2950   18.6430    3.6190 C.3    79  GLU79       0.1567
    166  C         -4.4040   17.6050    2.9330 C.2    79  GLU79       0.2260
    167  O         -4.8650   16.8840    2.0470 O.2    79  GLU79      -0.2867
    168  CB        -6.1050   17.9580    4.7340 C.3    79  GLU79       0.0388
    169  CG        -6.9020   18.9110    5.6070 C.3    79  GLU79       0.1160
    170  CD        -7.7550   18.2350    6.6750 C.2    79  GLU79       0.3649
    171  OE1       -7.7460   16.9830    6.8040 O.co2  79  GLU79      -0.2457
    172  OE2       -8.4580   18.9680    7.3970 O.co2  79  GLU79      -0.2457
    173  N         -2.8200   14.4060    4.0480 N.3    81  ARG81      -0.1245
    174  CA        -2.8250   13.5000    5.1970 C.3    81  ARG81       0.1563
    175  C         -1.7980   12.3960    5.0300 C.2    81  ARG81       0.2260
    176  O         -1.6150   11.8600    3.9360 O.2    81  ARG81      -0.2867
    177  CB        -4.2000   12.8970    5.4520 C.3    81  ARG81       0.0307
    178  CG        -5.2200   13.9370    5.8550 C.3    81  ARG81       0.0489
    179  CD        -6.5840   13.2920    6.0790 C.3    81  ARG81       0.2205
    180  NE        -7.4580   14.2330    6.7770 N.pl3  81  ARG81      -0.0865
    181  CZ        -8.5150   13.9180    7.5130 C.cat  81  ARG81       0.5346
    182  NH1       -8.8870   12.6470    7.6930 N.pl3  81  ARG81       0.1354
    183  NH2       -9.1930   14.8980    8.0870 N.pl3  81  ARG81       0.1354
    184  N          3.8450   28.5590   16.4840 N.3   129  SER129     -0.1217
    185  CA         2.8730   28.3110   17.5240 C.3   129  SER129      0.1889
    186  C          2.7370   26.8090   17.7600 C.2   129  SER129      0.2288
    187  O          2.8780   26.0270   16.8320 O.2   129  SER129     -0.2866
    188  CB         1.5110   28.8880   17.1200 C.3   129  SER129      0.2089
    189  OG         1.5070   30.3020   17.2770 O.3   129  SER129     -0.2183
    190  N          0.0480   24.1080   19.8160 N.3   131  ASN131     -0.1225
    191  CA        -1.1520   23.8860   20.6090 C.3   131  ASN131      0.1785
    192  C         -1.4580   22.4110   20.8470 C.2   131  ASN131      0.2597
    193  O         -0.9490   21.5490   20.1360 O.2   131  ASN131     -0.2718
    194  CB        -2.3470   24.6920   20.0970 C.3   131  ASN131      0.1169
    195  CG        -2.7360   24.3340   18.7070 C.2   131  ASN131      0.2627
    196  OD1       -3.1110   23.1920   18.4330 O.2   131  ASN131     -0.2716
    197  ND2       -2.6970   25.3170   17.8090 N.am  131  ASN131     -0.0877
    198  N         -2.3080   22.1490   21.8370 N.am  132  GLY132     -0.1957
    199  CA        -2.9020   20.8250   22.0290 C.3   132  GLY132      0.1869
    200  C         -2.1610   19.9250   22.9800 C.2   132  GLY132      0.2309
    201  O         -1.5950   20.3760   23.9940 O.2   132  GLY132     -0.2863
@<TRIPOS>BOND
     1   167   166    2
     2   164   165    1
     3   166   165    1
     4   153   152    2
     5   165   168    1
     6   152   151    1
     7   137   136    2
     8   176   175    2
     9   173   174    1
    10   168   169    1
    11   136   138   am
    12   136   135    1
    13   175   174    1
    14   174   177    1
    15   151   150    1
    16   151   154    1
    17   177   178    1
    18   169   170    1
    19   132   133    1
    20   132   135    1
    21   132   131    1
    22   141   142    2
    23   141   140    1
    24   133   134    2
    25   178   179    1
    26   179   180    1
    27   139   140    1
    28   154   155    1
    29   140   143    1
    30   170   171   ar
    31   170   172   ar
    32   180   181    2
    33    90    89    2
    34   181   182    1
    35   181   183    1
    36    89    88    1
    37   155   157   ar
    38   155   156   ar
    39   143   144    1
    40   160   157   ar
    41   160   162   ar
    42   144   145    1
    43   157   159   ar
    44   129   128    1
    45    82    81    2
    46    87    88    1
    47   156   158   ar
    48   126   125    1
    49   126   127    2
    50   162   163   ar
    51   125   128    1
    52   125   124    1
    53    95    96    1
    54    88    91    1
    55    98    97    2
    56   128   130    1
    57   145   146    1
    58    81    80    1
    59   159   158   ar
    60   159   161   ar
    61    91    93    1
    62    91    92    1
    63   146   147    2
    64    99    96    1
    65    99   100    1
    66    97    96    1
    67   163   161   ar
    68   102   100   ar
    69   102   104   ar
    70    83    80    1
    71    83    84    1
    72    80    79    1
    73   100   101   ar
    74    51    50    1
    75    51    52    2
    76    50    49    1
    77    50    53    1
    78   147   149    1
    79   147   148    1
    80    92    94    1
    81   122   121    1
    82   123   121    1
    83    84    86   am
    84    84    85    2
    85   104   103   ar
    86   121   120    2
    87    53    54    1
    88    78    77    2
    89    79    77   am
    90   105   106    1
    91   101   103   ar
    92    77    76    1
    93   109   106    1
    94   109   110    1
    95   108   107    2
    96   120   119    1
    97   112   110   am
    98    43    42    1
    99    43    44    2
   100    48    46   am
   101   106   107    1
   102   119   118    1
   103    42    45    1
   104    42    41    1
   105    74    73    1
   106    54    55    1
   107   110   111    2
   108    45    46    1
   109    76    75    1
   110    46    47    2
   111   118   117    1
   112    56    55    2
   113    55    57   am
   114    75    71   am
   115   117   114    1
   116    73    70    1
   117   113   114    1
   118    35    33    1
   119   116   115    2
   120    34    33    1
   121    71    70    1
   122    71    72    2
   123    33    32    2
   124   114   115    1
   125    40    37    1
   126    70    69    1
   127    69    60   am
   128    58    59    1
   129    37    38    1
   130    37    36    1
   131    32    31    1
   132    38    39    2
   133   184   185    1
   134    60    59    1
   135    60    61    2
   136    59    62    1
   137   187   186    2
   138    31    30    1
   139   188   189    1
   140   188   185    1
   141   185   186    1
   142    29    30    1
   143    29    26    1
   144   197   195   am
   145    64    66   ar
   146    64    63   ar
   147    62    63    1
   148    66    68   ar
   149   196   195    2
   150    63    65   ar
   151   195   194    1
   152    26    27    1
   153    26    25    1
   154    27    28    2
   155    24    23    1
   156    68    67   ar
   157    65    67   ar
   158   190   191    1
   159    23    20    1
   160   194   191    1
   161   193   192    2
   162    20    21    1
   163    20    19    1
   164    11    10    2
   165    21    22    2
   166   191   192    1
   167   192   198   am
   168    17    15   ar
   169    17    18   ar
   170    15    13   ar
   171    10    19   am
   172    10     9    1
   173   198   199    1
   174    18    16   ar
   175   199   200    1
   176    13    12    1
   177    13    14   ar
   178     9    12    1
   179     9     8    1
   180     8     3   am
   181   200   201    2
   182    16    14   ar
   183     5     2    1
   184     5     6    1
   185     3     2    1
   186     3     4    2
   187     2     1    1
   188     6     7    1
   189     1     7    1
