@<TRIPOS>MOLECULE
tmp/2zhmC00.pdb
 176 163 0 0 0
SMALL
GASTEIGER

@<TRIPOS>ATOM
      1  N         25.4930    9.2730   30.0620 N.3    10  PRO10      -0.2116
      2  CA        25.8980   10.2860   31.0470 C.3    10  PRO10       0.1372
      3  C         26.5130   11.5080   30.4050 C.2    10  PRO10       0.2244
      4  O         27.1610   11.4060   29.3600 O.2    10  PRO10      -0.2868
      5  CB        26.9310    9.5540   31.9220 C.3    10  PRO10       0.0268
      6  CG        27.5030    8.5010   31.0340 C.3    10  PRO10       0.0207
      7  CD        26.4100    8.1240   30.0480 C.3    10  PRO10       0.0892
      8  N         17.7900    4.1220   39.2790 N.3    38  ARG38      -0.1245
      9  CA        18.4500    5.3220   39.8150 C.3    38  ARG38       0.1563
     10  C         18.8970    6.3080   38.7370 C.2    38  ARG38       0.2260
     11  O         19.2860    5.9080   37.6460 O.2    38  ARG38      -0.2867
     12  CB        19.6800    4.9520   40.6480 C.3    38  ARG38       0.0307
     13  CG        19.4260    3.9800   41.7680 C.3    38  ARG38       0.0489
     14  CD        20.7030    3.7450   42.5570 C.3    38  ARG38       0.2205
     15  NE        20.4690    2.8120   43.6530 N.pl3  38  ARG38      -0.0865
     16  CZ        21.3480    2.5480   44.6190 C.cat  38  ARG38       0.5346
     17  NH1       22.5410    3.1350   44.6250 N.pl3  38  ARG38       0.1354
     18  NH2       21.0360    1.6890   45.5730 N.pl3  38  ARG38       0.1354
     19  N         21.1740   10.3760   38.8340 N.3    40  ALA40      -0.1245
     20  CA        21.7790   11.3960   39.6880 C.3    40  ALA40       0.1562
     21  C         22.1090   12.6500   38.9130 C.2    40  ALA40       0.2260
     22  O         22.4440   12.5790   37.7310 O.2    40  ALA40      -0.2867
     23  CB        23.0290   10.8620   40.3590 C.3    40  ALA40       0.0290
     24  N         24.8650   15.6440   39.6170 N.3    42  ASN42      -0.1240
     25  CA        26.0550   15.9270   40.4200 C.3    42  ASN42       0.1653
     26  C         26.6250   17.3130   40.1470 C.2    42  ASN42       0.2266
     27  O         26.9080   17.6670   38.9760 O.2    42  ASN42      -0.2867
     28  CB        27.1240   14.8750   40.1110 C.3    42  ASN42       0.1155
     29  CG        26.7390   13.5120   40.5980 C.2    42  ASN42       0.2627
     30  OD1       26.1330   13.3910   41.6540 O.2    42  ASN42      -0.2716
     31  ND2       27.1020   12.4680   39.8490 N.am   42  ASN42      -0.0877
     32  N         29.9150   19.2180   40.7950 N.3    44  GLN44      -0.1245
     33  CA        31.2480   18.7100   41.1350 C.3    44  GLN44       0.1566
     34  C         32.3780   19.6070   40.6400 C.2    44  GLN44       0.2260
     35  O         32.1830   20.5190   39.8230 O.2    44  GLN44      -0.2867
     36  CB        31.4290   17.2830   40.5750 C.3    44  GLN44       0.0367
     37  CG        31.4080   17.1880   39.0330 C.3    44  GLN44       0.0905
     38  CD        31.3200   15.7340   38.5380 C.2    44  GLN44       0.2608
     39  OE1       30.3690   15.0230   38.8490 O.2    44  GLN44      -0.2717
     40  NE2       32.3160   15.2960   37.7750 N.am   44  GLN44      -0.0878
     41  N         36.2070   16.6600   36.2940 N.3    47  PHE47      -0.1227
     42  CA        35.6150   15.4350   35.7430 C.3    47  PHE47       0.1736
     43  C         35.8990   14.1200   36.5030 C.2    47  PHE47       0.2596
     44  O         35.3950   13.0660   36.1160 O.2    47  PHE47      -0.2718
     45  CB        36.0400   15.2880   34.2760 C.3    47  PHE47       0.0547
     46  CG        35.5660   16.3970   33.3860 C.ar   47  PHE47      -0.0202
     47  CD1       34.2120   16.5460   33.0880 C.ar   47  PHE47      -0.0042
     48  CD2       36.4730   17.2720   32.8010 C.ar   47  PHE47      -0.0042
     49  CE1       33.7740   17.5670   32.2540 C.ar   47  PHE47      -0.0003
     50  CE2       36.0380   18.2940   31.9560 C.ar   47  PHE47      -0.0003
     51  CZ        34.6900   18.4410   31.6840 C.ar   47  PHE47      -0.0000
     52  N         36.6950   14.1680   37.5660 N.am   48  SER48      -0.1938
     53  CA        37.0910   12.9570   38.2930 C.3    48  SER48       0.2055
     54  C         35.9510   12.1880   38.9880 C.2    48  SER48       0.2643
     55  O         35.9430   10.9540   39.0080 O.2    48  SER48      -0.2714
     56  CB        38.1870   13.2790   39.3170 C.3    48  SER48       0.2130
     57  OG        37.6360   13.5940   40.5860 O.3    48  SER48      -0.2179
     58  N         35.0040   12.9140   39.5730 N.am   49  GLY49      -0.1954
     59  CA        33.9430   12.2860   40.3580 C.3    49  GLY49       0.1869
     60  C         34.2930   12.0690   41.8180 C.2    49  GLY49       0.2309
     61  O         33.4870   11.5420   42.5770 O.2    49  GLY49      -0.2863
     62  N         32.3600   15.8280   44.6570 N.3    52  ILE52      -0.1245
     63  CA        31.0030   16.2070   44.2900 C.3    52  ILE52       0.1561
     64  C         30.4450   16.9890   45.4620 C.2    52  ILE52       0.2260
     65  O         30.1850   16.4150   46.5190 O.2    52  ILE52      -0.2867
     66  CB        30.1440   14.9400   44.0150 C.3    52  ILE52       0.0252
     67  CG1       30.8030   14.1010   42.9130 C.3    52  ILE52       0.0019
     68  CG2       28.6700   15.3350   43.6660 C.3    52  ILE52       0.0019
     69  CD1       30.1590   12.7500   42.6290 C.3    52  ILE52       0.0001
     70  N         25.4430   15.7600   45.4040 N.3    55  HIS55      -0.1241
     71  CA        24.9320   14.6050   44.6660 C.3    55  HIS55       0.1621
     72  C         23.4410   14.5230   44.9760 C.2    55  HIS55       0.2264
     73  O         23.0600   14.3610   46.1470 O.2    55  HIS55      -0.2867
     74  CB        25.6840   13.3650   45.1840 C.3    55  HIS55       0.0745
     75  CG        25.1840   12.0260   44.7000 C.ar   55  HIS55       0.0817
     76  ND1       25.3310   11.5800   43.4020 N.ar   55  HIS55      -0.2268
     77  CD2       24.6760   10.9790   45.3950 C.ar   55  HIS55       0.1154
     78  CE1       24.8820   10.3400   43.3090 C.ar   55  HIS55       0.1986
     79  NE2       24.4840    9.9510   44.5080 N.ar   55  HIS55      -0.2212
     80  N         20.2220   12.2880   44.1160 N.3    57  ASN57      -0.1240
     81  CA        20.1230   10.9060   43.6300 C.3    57  ASN57       0.1653
     82  C         18.7680   10.2110   43.9060 C.2    57  ASN57       0.2266
     83  O         18.6140    9.5270   44.9080 O.2    57  ASN57      -0.2867
     84  CB        21.2950   10.1290   44.2570 C.3    57  ASN57       0.1155
     85  CG        21.3240    8.6480   43.8770 C.2    57  ASN57       0.2627
     86  OD1       20.9720    8.2500   42.7660 O.2    57  ASN57      -0.2716
     87  ND2       21.7900    7.8370   44.7960 N.am   57  ASN57      -0.0877
     88  N         16.1160    7.2850   43.8640 N.3    59  ARG59      -0.1245
     89  CA        16.2150    5.8040   43.8230 C.3    59  ARG59       0.1563
     90  C         14.8160    5.1830   43.8840 C.2    59  ARG59       0.2260
     91  O         14.0990    5.3620   44.8810 O.2    59  ARG59      -0.2867
     92  CB        17.0390    5.2800   45.0050 C.3    59  ARG59       0.0307
     93  CG        18.4960    5.7150   45.0000 C.3    59  ARG59       0.0489
     94  CD        19.2290    5.2040   46.2010 C.3    59  ARG59       0.2205
     95  NE        20.6020    5.7010   46.2030 N.pl3  59  ARG59      -0.0865
     96  CZ        21.5220    5.3630   47.0970 C.cat  59  ARG59       0.5346
     97  NH1       21.2270    4.5160   48.0910 N.pl3  59  ARG59       0.1354
     98  NH2       22.7340    5.8700   47.0020 N.pl3  59  ARG59       0.1354
     99  N         18.3220   10.4650   47.6820 N.3    67  VAL67      -0.1245
    100  CA        19.5370   10.6520   48.4800 C.3    67  VAL67       0.1561
    101  C         20.2010   11.9850   48.1130 C.2    67  VAL67       0.2260
    102  O         20.3440   12.3180   46.9330 O.2    67  VAL67      -0.2867
    103  CB        20.5360    9.5270   48.2250 C.3    67  VAL67       0.0252
    104  CG1       21.9160    9.8610   48.8030 C.3    67  VAL67       0.0019
    105  CG2       20.0010    8.1920   48.7830 C.3    67  VAL67       0.0019
    106  N         23.8700   13.9560   49.0660 N.3    69  ASN69      -0.1240
    107  CA        25.1560   13.7660   49.7170 C.3    69  ASN69       0.1653
    108  C         26.2790   14.5750   49.0500 C.2    69  ASN69       0.2266
    109  O         26.0590   15.2520   48.0490 O.2    69  ASN69      -0.2867
    110  CB        25.4920   12.2760   49.7520 C.3    69  ASN69       0.1155
    111  CG        26.4220   11.8910   50.9060 C.2    69  ASN69       0.2627
    112  OD1       26.8400   12.7230   51.7120 O.2    69  ASN69      -0.2716
    113  ND2       26.7420   10.6080   50.9800 N.am   69  ASN69      -0.0877
    114  N         30.6050   14.1470   48.1160 N.3    71  ARG71      -0.1245
    115  CA        31.7930   13.3030   48.0530 C.3    71  ARG71       0.1563
    116  C         33.0190   14.2220   48.1020 C.2    71  ARG71       0.2260
    117  O         33.0880   15.2320   47.3950 O.2    71  ARG71      -0.2867
    118  CB        31.7630   12.4800   46.7670 C.3    71  ARG71       0.0307
    119  CG        32.6870   11.2700   46.7260 C.3    71  ARG71       0.0489
    120  CD        32.3560   10.4960   45.4810 C.3    71  ARG71       0.2205
    121  NE        33.4130    9.6080   45.0210 N.pl3  71  ARG71      -0.0865
    122  CZ        33.5630    8.3510   45.4190 C.cat  71  ARG71       0.5346
    123  NH1       32.7480    7.8350   46.3190 N.pl3  71  ARG71       0.1354
    124  NH2       34.5400    7.6100   44.9270 N.pl3  71  ARG71       0.1354
    125  N         32.2740    9.2710   50.4030 N.3    76  TRP76      -0.1241
    126  CA        30.9120    9.7610   50.6120 C.3    76  TRP76       0.1605
    127  C         30.6640   10.1600   52.0610 C.2    76  TRP76       0.2264
    128  O         31.0690    9.4430   52.9840 O.2    76  TRP76      -0.2867
    129  CB        29.9040    8.7000   50.1750 C.3    76  TRP76       0.0550
    130  CG        29.7980    8.5650   48.6850 C.ar   76  TRP76       0.0003
    131  CD1       30.2100    7.5140   47.9170 C.ar   76  TRP76       0.0946
    132  CD2       29.2330    9.5260   47.7880 C.ar   76  TRP76       0.0152
    133  NE1       29.9380    7.7630   46.5870 N.ar   76  TRP76      -0.2442
    134  CE2       29.3330    8.9910   46.4820 C.ar   76  TRP76       0.0810
    135  CE3       28.6340   10.7820   47.9630 C.ar   76  TRP76       0.0012
    136  CZ2       28.8660    9.6730   45.3530 C.ar   76  TRP76       0.0191
    137  CZ3       28.1640   11.4630   46.8320 C.ar   76  TRP76       0.0001
    138  CH2       28.2900   10.9050   45.5480 C.ar   76  TRP76       0.0015
    139  N         24.6000   10.6090   54.2390 N.3    79  GLU79      -0.1245
    140  CA        23.4690   10.8380   53.3420 C.3    79  GLU79       0.1567
    141  C         22.3170   11.5560   54.0320 C.2    79  GLU79       0.2260
    142  O         21.9840   11.2610   55.1950 O.2    79  GLU79      -0.2867
    143  CB        22.9460    9.5120   52.7940 C.3    79  GLU79       0.0388
    144  CG        23.8990    8.8040   51.8970 C.3    79  GLU79       0.1160
    145  CD        23.2930    7.5770   51.2360 C.2    79  GLU79       0.3649
    146  OE1       22.1360    7.2000   51.5520 O.co2  79  GLU79      -0.2457
    147  OE2       23.9890    6.9890   50.3900 O.co2  79  GLU79      -0.2457
    148  N         18.3610   11.6540   53.3790 N.3    81  ARG81      -0.1245
    149  CA        17.3560   10.9410   52.5900 C.3    81  ARG81       0.1563
    150  C         15.9520   11.5190   52.7760 C.2    81  ARG81       0.2260
    151  O         15.5800   11.9600   53.8670 O.2    81  ARG81      -0.2867
    152  CB        17.3470    9.4370   52.9090 C.3    81  ARG81       0.0307
    153  CG        18.5960    8.6920   52.4920 C.3    81  ARG81       0.0489
    154  CD        18.4590    7.2200   52.8030 C.3    81  ARG81       0.2205
    155  NE        19.6040    6.4770   52.3110 N.pl3  81  ARG81      -0.0865
    156  CZ        19.6310    5.1610   52.1400 C.cat  81  ARG81       0.5346
    157  NH1       18.5590    4.4290   52.4160 N.pl3  81  ARG81       0.1354
    158  NH2       20.7140    4.5880   51.6420 N.pl3  81  ARG81       0.1354
    159  N         27.0790   17.1000   36.2530 N.3   129  SER129     -0.1217
    160  CA        26.9890   15.7930   35.6270 C.3   129  SER129      0.1889
    161  C         25.6340   15.1590   35.8770 C.2   129  SER129      0.2288
    162  O         25.0560   15.3120   36.9460 O.2   129  SER129     -0.2866
    163  CB        28.0860   14.8670   36.1330 C.3   129  SER129      0.2089
    164  OG        29.3290   15.4730   35.9260 O.3   129  SER129     -0.2183
    165  N         23.7590   11.2420   35.3130 N.3   131  ASN131     -0.1225
    166  CA        23.9570    9.8480   34.9230 C.3   131  ASN131      0.1785
    167  C         22.7720    8.9870   35.3270 C.2   131  ASN131      0.2597
    168  O         21.9300    9.4390   36.0860 O.2   131  ASN131     -0.2718
    169  CB        25.2960    9.2900   35.4690 C.3   131  ASN131      0.1169
    170  CG        25.3650    9.2610   36.9950 C.2   131  ASN131      0.2627
    171  OD1       24.5460    8.6350   37.6460 O.2   131  ASN131     -0.2716
    172  ND2       26.3630    9.9230   37.5600 N.am  131  ASN131     -0.0877
    173  N         22.7200    7.7570   34.8060 N.am  132  GLY132     -0.1957
    174  CA        21.7090    6.7840   35.2050 C.3   132  GLY132      0.1869
    175  C         20.5000    6.7380   34.2950 C.2   132  GLY132      0.2309
    176  O         20.5970    7.0020   33.0900 O.2   132  GLY132     -0.2863
@<TRIPOS>BOND
     1     4     3    2
     2     7     1    1
     3     7     6    1
     4     1     2    1
     5     3     2    1
     6     6     5    1
     7     2     5    1
     8    51    50   ar
     9    51    49   ar
    10    50    48   ar
    11    49    47   ar
    12    48    46   ar
    13    47    46   ar
    14   176   175    2
    15    46    45    1
    16    45    42    1
    17   175   174    1
    18   173   174    1
    19   173   167   am
    20   166   165    1
    21   166   167    1
    22   166   169    1
    23   167   168    2
    24   169   170    1
    25   160   161    1
    26   160   163    1
    27   160   159    1
    28    42    41    1
    29    42    43    1
    30   161   162    2
    31   164   163    1
    32    44    43    2
    33    43    52   am
    34   170   172   am
    35   170   171    2
    36    52    53    1
    37    11    10    2
    38    22    21    2
    39    40    38   am
    40    53    54    1
    41    53    56    1
    42    38    39    2
    43    38    37    1
    44    10     9    1
    45    19    20    1
    46    21    20    1
    47    27    26    2
    48    54    55    2
    49    54    58   am
    50    37    36    1
    51     8     9    1
    52    56    57    1
    53    58    59    1
    54    24    25    1
    55    20    23    1
    56     9    12    1
    57    35    34    2
    58    31    29   am
    59    28    25    1
    60    28    29    1
    61    26    25    1
    62    59    60    1
    63    36    33    1
    64    29    30    2
    65    34    33    1
    66    12    13    1
    67    32    33    1
    68    13    14    1
    69    60    61    2
    70    14    15    1
    71    69    67    1
    72    86    85    2
    73    67    66    1
    74    78    76   ar
    75    78    79   ar
    76    76    75   ar
    77    81    82    1
    78    81    80    1
    79    81    84    1
    80    15    16    2
    81    68    66    1
    82    89    88    1
    83    89    90    1
    84    89    92    1
    85    85    84    1
    86    85    87   am
    87    90    91    2
    88    82    83    2
    89    66    63    1
    90    63    62    1
    91    63    64    1
    92    79    77   ar
    93    16    17    1
    94    16    18    1
    95    71    72    1
    96    71    74    1
    97    71    70    1
    98    75    74    1
    99    75    77   ar
   100   124   122    1
   101    72    73    2
   102    93    92    1
   103    93    94    1
   104   121   122    2
   105   121   120    1
   106   136   138   ar
   107   136   134   ar
   108   122   123    1
   109    64    65    2
   110   120   119    1
   111   138   137   ar
   112    94    95    1
   113    95    96    2
   114   134   133   ar
   115   134   132   ar
   116   133   131   ar
   117   119   118    1
   118   118   115    1
   119   137   135   ar
   120   102   101    2
   121    98    96    1
   122    96    97    1
   123   117   116    2
   124    99   100    1
   125   132   135   ar
   126   132   130   ar
   127   131   130   ar
   128   109   108    2
   129   115   116    1
   130   115   114    1
   131   101   100    1
   132   103   100    1
   133   103   105    1
   134   103   104    1
   135   130   129    1
   136   108   107    1
   137   106   107    1
   138   107   110    1
   139   110   111    1
   140   129   126    1
   141   147   145   ar
   142   125   126    1
   143   126   127    1
   144   111   113   am
   145   111   112    2
   146   145   146   ar
   147   145   144    1
   148   158   156    1
   149   144   143    1
   150   127   128    2
   151   156   155    2
   152   156   157    1
   153   155   154    1
   154   153   154    1
   155   153   152    1
   156   149   150    1
   157   149   152    1
   158   149   148    1
   159   150   151    2
   160   143   140    1
   161   140   141    1
   162   140   139    1
   163   141   142    2
