@<TRIPOS>MOLECULE
tmp/2zhqB01.pdb
 215 216 0 0 0
SMALL
GASTEIGER

@<TRIPOS>ATOM
      1  N         22.3630   -6.0450   18.4220 N.3    43  HIS43      -0.1241
      2  CA        22.2330   -7.4430   17.9850 C.3    43  HIS43       0.1621
      3  C         21.5500   -7.4990   16.6250 C.2    43  HIS43       0.2264
      4  O         21.6560   -8.5040   15.9240 O.2    43  HIS43      -0.2867
      5  CB        21.5180   -8.3140   19.0160 C.3    43  HIS43       0.0745
      6  CG        20.0340   -8.1940   19.1020 C.ar   43  HIS43       0.0817
      7  ND1       19.4040   -7.3400   19.9880 N.ar   43  HIS43      -0.2268
      8  CD2       19.0460   -8.8390   18.4340 C.ar   43  HIS43       0.1154
      9  CE1       18.0910   -7.4450   19.8500 C.ar   43  HIS43       0.1986
     10  NE2       17.8450   -8.3460   18.9120 N.ar   43  HIS43      -0.2212
     11  N         25.9040  -10.1230   15.3690 N.3    47  TYR47      -0.1241
     12  CA        25.7280  -11.2480   16.2800 C.3    47  TYR47       0.1605
     13  C         26.4370  -12.4960   15.7590 C.2    47  TYR47       0.2264
     14  O         25.8320  -13.3970   15.1640 O.2    47  TYR47      -0.2867
     15  CB        24.2410  -11.5370   16.5260 C.3    47  TYR47       0.0534
     16  CG        24.0880  -12.4600   17.7170 C.ar   47  TYR47      -0.0201
     17  CD1       24.5220  -12.0350   18.9680 C.ar   47  TYR47      -0.0009
     18  CD2       23.5190  -13.7180   17.5750 C.ar   47  TYR47      -0.0009
     19  CE1       24.3850  -12.8730   20.0700 C.ar   47  TYR47       0.0417
     20  CE2       23.3920  -14.5460   18.6730 C.ar   47  TYR47       0.0417
     21  CZ        23.8240  -14.1170   19.9120 C.ar   47  TYR47       0.1957
     22  OH        23.6910  -14.9550   21.0030 O.3    47  TYR47      -0.2866
     23  N         25.3890  -16.1840   15.2100 N.3    50  TRP50      -0.1241
     24  CA        24.4800  -16.5390   14.1120 C.3    50  TRP50       0.1605
     25  C         25.0610  -16.0770   12.7810 C.2    50  TRP50       0.2264
     26  O         24.3370  -15.9950   11.7930 O.2    50  TRP50      -0.2867
     27  CB        23.0880  -15.9410   14.3180 C.3    50  TRP50       0.0550
     28  CG        22.3840  -16.5110   15.5230 C.ar   50  TRP50       0.0003
     29  CD1       22.7250  -17.6440   16.2050 C.ar   50  TRP50       0.0946
     30  CD2       21.2250  -15.9870   16.1890 C.ar   50  TRP50       0.0152
     31  NE1       21.8570  -17.8590   17.2500 N.ar   50  TRP50      -0.2442
     32  CE2       20.9250  -16.8550   17.2630 C.ar   50  TRP50       0.0810
     33  CE3       20.4120  -14.8680   15.9890 C.ar   50  TRP50       0.0012
     34  CZ2       19.8570  -16.6520   18.1300 C.ar   50  TRP50       0.0191
     35  CZ3       19.3470  -14.6680   16.8570 C.ar   50  TRP50       0.0001
     36  CH2       19.0750  -15.5450   17.9120 C.ar   50  TRP50       0.0015
     37  N         25.8920  -13.1640   11.9590 N.3    52  LYS52      -0.1245
     38  CA        25.2680  -11.9020   11.5680 C.3    52  LYS52       0.1561
     39  C         26.2460  -10.7440   11.7300 C.2    52  LYS52       0.2260
     40  O         26.7140  -10.4980   12.8390 O.2    52  LYS52      -0.2867
     41  CB        24.0100  -11.6020   12.3920 C.3    52  LYS52       0.0271
     42  CG        23.2940  -10.3250   11.9730 C.3    52  LYS52       0.0035
     43  CD        22.2320   -9.8830   12.9600 C.3    52  LYS52       0.0206
     44  CE        20.9960  -10.7760   12.9090 C.3    52  LYS52       0.1093
     45  NZ        20.1820  -10.6130   14.1580 N.3    52  LYS52      -0.1314
     46  N         28.0940   -9.3030   23.0040 N.3    92  TRP92      -0.1241
     47  CA        27.4330  -10.3770   22.2870 C.3    92  TRP92       0.1605
     48  C         27.9000  -11.7570   22.7380 C.2    92  TRP92       0.2264
     49  O         27.1950  -12.7430   22.5120 O.2    92  TRP92      -0.2867
     50  CB        27.6580  -10.2540   20.7740 C.3    92  TRP92       0.0550
     51  CG        29.0900  -10.1950   20.3540 C.ar   92  TRP92       0.0003
     52  CD1       29.8530   -9.0820   20.1340 C.ar   92  TRP92       0.0946
     53  CD2       29.9350  -11.3320   20.1010 C.ar   92  TRP92       0.0152
     54  NE1       31.1280   -9.4720   19.7570 N.ar   92  TRP92      -0.2442
     55  CE2       31.2010  -10.8350   19.7310 C.ar   92  TRP92       0.0810
     56  CE3       29.7320  -12.7120   20.1560 C.ar   92  TRP92       0.0012
     57  CZ2       32.2690  -11.6810   19.4140 C.ar   92  TRP92       0.0191
     58  CZ3       30.7900  -13.5510   19.8420 C.ar   92  TRP92       0.0001
     59  CH2       32.0380  -13.0370   19.4790 C.ar   92  TRP92       0.0015
     60  N         28.2930  -12.8570   25.8540 N.3    94  GLU94      -0.1231
     61  CA        27.5780  -13.4280   26.9960 C.3    94  GLU94       0.1699
     62  C         26.1040  -13.0590   27.0550 C.2    94  GLU94       0.2592
     63  O         25.2380  -13.9040   26.7760 O.2    94  GLU94      -0.2718
     64  CB        28.3150  -12.9770   28.2630 C.3    94  GLU94       0.0402
     65  CG        27.5270  -13.2280   29.5340 C.3    94  GLU94       0.1161
     66  CD        28.2400  -12.6870   30.7610 C.2    94  GLU94       0.3649
     67  OE1       29.1330  -11.8230   30.6090 O.co2  94  GLU94      -0.2457
     68  OE2       27.8780  -13.1510   31.8600 O.co2  94  GLU94      -0.2457
     69  N         25.7680  -11.8210   27.4230 N.am   95  ASN95      -0.1960
     70  CA        24.3750  -11.5010   27.7130 C.3    95  ASN95       0.1819
     71  C         23.7750  -10.3100   26.9820 C.2    95  ASN95       0.2621
     72  O         22.7220   -9.8400   27.4380 O.2    95  ASN95      -0.2715
     73  CB        24.2440  -11.2320   29.2200 C.3    95  ASN95       0.1195
     74  CG        25.1820  -10.1430   29.7030 C.2    95  ASN95       0.2630
     75  OD1       25.9710   -9.6040   28.9290 O.2    95  ASN95      -0.2716
     76  ND2       25.0960   -9.7990   30.9870 N.am   95  ASN95      -0.0877
     77  N         24.3700   -9.8050   25.9090 N.am   96  LEU96      -0.1977
     78  CA        23.7640   -8.6730   25.1930 C.3    96  LEU96       0.1596
     79  C         23.7970   -7.3900   26.0010 C.2    96  LEU96       0.2287
     80  O         23.0050   -6.4650   25.7890 O.2    96  LEU96      -0.2864
     81  CB        22.3170   -8.9980   24.8020 C.3    96  LEU96       0.0297
     82  CG        22.1230   -9.3450   23.3210 C.3    96  LEU96       0.0022
     83  CD1       23.2100  -10.3060   22.8700 C.3    96  LEU96       0.0001
     84  CD2       20.7390   -9.9240   23.0540 C.3    96  LEU96       0.0001
     85  N         20.1310  -15.9660   32.9890 N.3   171  ILE171     -0.1245
     86  CA        21.0780  -15.0420   32.3640 C.3   171  ILE171      0.1561
     87  C         21.5420  -13.9620   33.3260 C.2   171  ILE171      0.2260
     88  O         20.7980  -13.5160   34.2030 O.2   171  ILE171     -0.2867
     89  CB        20.4360  -14.3950   31.1200 C.3   171  ILE171      0.0252
     90  CG1       20.0610  -15.4210   30.0460 C.3   171  ILE171      0.0019
     91  CG2       21.3120  -13.2930   30.5460 C.3   171  ILE171      0.0019
     92  CD1       21.2420  -15.8790   29.2140 C.3   171  ILE171      0.0001
     93  N          3.8570   -8.9040   24.9330 N.3   191  ASP191     -0.1225
     94  CA         5.3220   -8.9320   24.9430 C.3   191  ASP191      0.1805
     95  C          5.8170   -8.5920   23.5410 C.2   191  ASP191      0.2598
     96  O          5.0310   -8.7010   22.5910 O.2   191  ASP191     -0.2718
     97  CB         5.8530  -10.3030   25.3550 C.3   191  ASP191      0.1424
     98  CG         7.3450  -10.4180   25.5560 C.2   191  ASP191      0.3668
     99  OD1        7.8280  -11.5720   25.6650 O.co2 191  ASP191     -0.2456
    100  OD2        8.0890   -9.4180   25.6380 O.co2 191  ASP191     -0.2456
    101  N          7.0850   -8.2050   23.4530 N.am  192  ALA192     -0.1966
    102  CA         7.7640   -8.1000   22.1700 C.3   192  ALA192      0.1728
    103  C          8.2290   -9.4890   21.7400 C.2   192  ALA192      0.2616
    104  O          8.2920  -10.4310   22.5280 O.2   192  ALA192     -0.2715
    105  CB         8.9580   -7.1710   22.1920 C.3   192  ALA192      0.0334
    106  N          8.5600   -9.6200   20.4630 N.am  193  CYS193     -0.1954
    107  CA         8.9790  -10.9440   20.0000 C.3   193  CYS193      0.1843
    108  C         10.0000  -10.7850   18.8790 C.2   193  CYS193      0.2625
    109  O         10.3180   -9.6520   18.5220 O.2   193  CYS193     -0.2714
    110  CB         7.7450  -11.7380   19.5680 C.3   193  CYS193      0.0997
    111  SG         8.0380  -13.5040   19.2880 S.3   193  CYS193     -0.0797
    112  N         10.5060  -11.8860   18.3510 N.am  194  GLU194     -0.1977
    113  CA        11.3820  -11.8870   17.1860 C.3   194  GLU194      0.1602
    114  C         10.8340  -10.9500   16.1160 C.2   194  GLU194      0.2287
    115  O          9.6320  -10.9680   15.8170 O.2   194  GLU194     -0.2864
    116  CB        11.4970  -13.3200   16.6630 C.3   194  GLU194      0.0415
    117  CG        12.0630  -13.4430   15.2610 C.3   194  GLU194      0.1163
    118  CD        12.1120  -14.8840   14.7860 C.2   194  GLU194      0.3649
    119  OE1       12.1600  -15.7880   15.6520 O.co2 194  GLU194     -0.2457
    120  OE2       12.0890  -15.1200   13.5590 O.co2 194  GLU194     -0.2457
    121  N         12.8480   -6.6240   17.6140 N.3   197  SER197     -0.1217
    122  CA        14.2020   -6.2650   17.9830 C.3   197  SER197      0.1889
    123  C         14.5630   -4.8550   17.5430 C.2   197  SER197      0.2288
    124  O         14.2550   -4.5290   16.3970 O.2   197  SER197     -0.2866
    125  CB        15.2120   -7.2150   17.3250 C.3   197  SER197      0.2089
    126  OG        15.2990   -8.4420   18.0340 O.3   197  SER197     -0.2183
    127  N         14.1230   -2.7220   22.3750 N.3   217  VAL217     -0.1231
    128  CA        13.8880   -4.1670   22.4830 C.3   217  VAL217      0.1692
    129  C         15.1500   -4.9900   22.3120 C.2   217  VAL217      0.2593
    130  O         15.8330   -4.9610   21.2780 O.2   217  VAL217     -0.2718
    131  CB        12.8460   -4.5750   21.4190 C.3   217  VAL217      0.0266
    132  CG1       12.5440   -6.0640   21.5190 C.3   217  VAL217      0.0020
    133  CG2       11.6010   -3.7200   21.5870 C.3   217  VAL217      0.0020
    134  N         15.4880   -5.7870   23.3300 N.am  218  SER218     -0.1938
    135  CA        16.7690   -6.4850   23.2970 C.3   218  SER218      0.2055
    136  C         16.6510   -7.9960   23.2740 C.2   218  SER218      0.2643
    137  O         17.0820   -8.6730   22.3410 O.2   218  SER218     -0.2714
    138  CB        17.5840   -6.0440   24.5250 C.3   218  SER218      0.2130
    139  OG        18.9590   -6.3600   24.3630 O.3   218  SER218     -0.2179
    140  N         16.0730   -8.5830   24.3210 N.am  219  TRP219     -0.1959
    141  CA        16.0530  -10.0420   24.3710 C.3   219  TRP219      0.1771
    142  C         14.9340  -10.5480   25.2730 C.2   219  TRP219      0.2620
    143  O         14.2870   -9.7920   25.9870 O.2   219  TRP219     -0.2715
    144  CB        17.3790  -10.6100   24.8630 C.3   219  TRP219      0.0590
    145  CG        17.8630  -10.3190   26.2430 C.ar  219  TRP219      0.0006
    146  CD1       18.5610   -9.2030   26.6070 C.ar  219  TRP219      0.0946
    147  CD2       17.7390  -11.0870   27.4520 C.ar  219  TRP219      0.0152
    148  NE1       18.8720   -9.2180   27.9470 N.ar  219  TRP219     -0.2442
    149  CE2       18.3750  -10.3740   28.4890 C.ar  219  TRP219      0.0810
    150  CE3       17.1500  -12.3100   27.7880 C.ar  219  TRP219      0.0012
    151  CZ2       18.4550  -10.8140   29.8160 C.ar  219  TRP219      0.0191
    152  CZ3       17.2230  -12.7540   29.0970 C.ar  219  TRP219      0.0001
    153  CH2       17.8660  -12.0150   30.0970 C.ar  219  TRP219      0.0015
    154  N         14.7500  -11.8620   25.1900 N.am  220  GLY220     -0.1940
    155  CA        13.7900  -12.5640   26.0110 C.3   220  GLY220      0.2014
    156  C         13.8120  -14.0440   25.6520 C.2   220  GLY220      0.2639
    157  O         14.2050  -14.3780   24.5400 O.2   220  GLY220     -0.2714
    158  N         13.4030  -14.8750   26.5880 N.am  221  GLU221     -0.1963
    159  CA        13.3390  -16.3200   26.3590 C.3   221  GLU221      0.1733
    160  C         11.9030  -16.6800   26.0250 C.2   221  GLU221      0.2617
    161  O         10.9570  -16.5600   26.8080 O.2   221  GLU221     -0.2715
    162  CB        13.9180  -17.0320   27.5860 C.3   221  GLU221      0.0429
    163  CG        15.2550  -16.4170   28.0110 C.3   221  GLU221      0.1163
    164  CD        15.8400  -17.0010   29.2830 C.2   221  GLU221      0.3649
    165  OE1       15.7810  -16.3630   30.3620 O.co2 221  GLU221     -0.2457
    166  OE2       16.3910  -18.1240   29.2440 O.co2 221  GLU221     -0.2457
    167  N         11.7240  -17.1100   24.7850 N.am  222  GLY222     -0.1940
    168  CA        10.3890  -17.2900   24.2180 C.3   222  GLY222      0.2014
    169  C          9.7310  -15.9180   24.0960 C.2   222  GLY222      0.2639
    170  O         10.4210  -14.9150   24.2910 O.2   222  GLY222     -0.2714
    171  N          8.4450  -15.8660   23.7940 N.am  223  CYS223     -0.1967
    172  CA         7.7250  -14.5970   23.7080 C.3   223  CYS223      0.1712
    173  C          6.4260  -14.7200   24.5000 C.2   223  CYS223      0.2296
    174  O          5.6540  -15.6380   24.2100 O.2   223  CYS223     -0.2864
    175  CB         7.4230  -14.2100   22.2600 C.3   223  CYS223      0.0983
    176  SG         8.8090  -14.1470   21.1120 S.3   223  CYS223     -0.0798
    177  N         10.0230  -12.3210   31.2640 N.3   229  TYR229     -0.1227
    178  CA         9.7790  -10.9100   30.9570 C.3   229  TYR229      0.1736
    179  C         10.6080  -10.4870   29.7590 C.2   229  TYR229      0.2596
    180  O         11.6120  -11.1360   29.4420 O.2   229  TYR229     -0.2718
    181  CB        10.1180  -10.0420   32.1900 C.3   229  TYR229      0.0548
    182  CG         9.2490  -10.4960   33.3520 C.ar  229  TYR229     -0.0200
    183  CD1        9.6830  -11.4550   34.2520 C.ar  229  TYR229     -0.0009
    184  CD2        7.9880   -9.9500   33.5050 C.ar  229  TYR229     -0.0009
    185  CE1        8.8500  -11.8380   35.2890 C.ar  229  TYR229      0.0417
    186  CE2        7.1480  -10.3240   34.5340 C.ar  229  TYR229      0.0417
    187  CZ         7.6010  -11.2790   35.4240 C.ar  229  TYR229      0.1957
    188  OH         6.7640  -11.6540   36.4510 O.3   229  TYR229     -0.2866
    189  N         10.2220   -9.4150   29.0820 N.am  230  GLY230     -0.1942
    190  CA        11.0370   -8.9490   27.9580 C.3   230  GLY230      0.2014
    191  C         12.1480   -8.0810   28.5110 C.2   230  GLY230      0.2639
    192  O         11.9520   -7.3750   29.5030 O.2   230  GLY230     -0.2714
    193  N         13.3360   -8.1220   27.9160 N.am  231  PHE231     -0.1959
    194  CA        14.4000   -7.2820   28.4500 C.3   231  PHE231      0.1771
    195  C         14.7380   -6.1900   27.4430 C.2   231  PHE231      0.2619
    196  O         14.6950   -6.4510   26.2460 O.2   231  PHE231     -0.2715
    197  CB        15.6610   -8.0970   28.7700 C.3   231  PHE231      0.0574
    198  CG        15.4660   -8.8860   30.0600 C.ar  231  PHE231     -0.0200
    199  CD1       14.7390  -10.0610   30.0640 C.ar  231  PHE231     -0.0042
    200  CD2       16.0180   -8.4150   31.2410 C.ar  231  PHE231     -0.0042
    201  CE1       14.5520  -10.7700   31.2400 C.ar  231  PHE231     -0.0003
    202  CE2       15.8370   -9.1080   32.4250 C.ar  231  PHE231     -0.0003
    203  CZ        15.1060  -10.2900   32.4080 C.ar  231  PHE231     -0.0000
    204  N         15.0120   -5.0080   27.9850 N.am  232  TYR232     -0.1974
    205  CA        15.2590   -3.8100   27.2060 C.3   232  TYR232      0.1639
    206  C         16.5930   -3.1770   27.5670 C.2   232  TYR232      0.2290
    207  O         16.9370   -3.0950   28.7410 O.2   232  TYR232     -0.2864
    208  CB        14.0940   -2.8190   27.4170 C.3   232  TYR232      0.0560
    209  CG        12.7670   -3.4680   27.0460 C.ar  232  TYR232     -0.0198
    210  CD1       12.1000   -4.3000   27.9470 C.ar  232  TYR232     -0.0009
    211  CD2       12.1910   -3.2350   25.8040 C.ar  232  TYR232     -0.0009
    212  CE1       10.8990   -4.8800   27.6050 C.ar  232  TYR232      0.0417
    213  CE2       10.9820   -3.8290   25.4600 C.ar  232  TYR232      0.0417
    214  CZ        10.3450   -4.6490   26.3650 C.ar  232  TYR232      0.1957
    215  OH         9.1380   -5.2480   26.0370 O.3   232  TYR232     -0.2866
@<TRIPOS>BOND
     1    38    39    1
     2    38    37    1
     3    38    41    1
     4    39    40    2
     5    26    25    2
     6    42    41    1
     7    42    43    1
     8    25    24    1
     9    44    43    1
    10    44    45    1
    11   120   118   ar
    12    24    27    1
    13    24    23    1
    14    27    28    1
    15   118   117    1
    16   118   119   ar
    17    14    13    2
    18   117   116    1
    19    11    12    1
    20    28    30   ar
    21    28    29   ar
    22    13    12    1
    23   115   114    2
    24     4     3    2
    25    33    30   ar
    26    33    35   ar
    27   114   113    1
    28    30    32   ar
    29    29    31   ar
    30    12    15    1
    31   124   123    2
    32    15    16    1
    33     3     2    1
    34   116   113    1
    35    35    36   ar
    36   113   112    1
    37    31    32   ar
    38    32    34   ar
    39   125   122    1
    40   125   126    1
    41   123   122    1
    42    18    16   ar
    43    18    20   ar
    44   121   122    1
    45    16    17   ar
    46    36    34   ar
    47     2     1    1
    48     2     5    1
    49   112   108   am
    50     8    10   ar
    51     8     6   ar
    52   109   108    2
    53    20    21   ar
    54   108   107    1
    55    10     9   ar
    56    17    19   ar
    57     5     6    1
    58     6     7   ar
    59   111   110    1
    60   111   176    1
    61    57    59   ar
    62    57    55   ar
    63    59    58   ar
    64   110   107    1
    65    55    54   ar
    66    55    53   ar
    67    54    52   ar
    68    58    56   ar
    69     9     7   ar
    70    21    19   ar
    71    21    22    1
    72   107   106    1
    73    53    56   ar
    74    53    51   ar
    75    52    51   ar
    76    51    50    1
    77   106   103   am
    78    50    47    1
    79   176   175    1
    80   130   129    2
    81   131   132    1
    82   131   133    1
    83   131   128    1
    84   103   102    1
    85   103   104    2
    86   102   105    1
    87   102   101    1
    88   175   172    1
    89    47    48    1
    90    47    46    1
    91   129   128    1
    92   129   134   am
    93   137   136    2
    94   127   128    1
    95    49    48    2
    96    96    95    2
    97    83    82    1
    98    84    82    1
    99   136   135    1
   100   136   140   am
   101   135   134    1
   102   135   138    1
   103    82    81    1
   104   101    95   am
   105    95    94    1
   106   172   171    1
   107   172   173    1
   108   171   169   am
   109   169   168    1
   110   169   170    2
   111   174   173    2
   112   168   167    1
   113   140   141    1
   114   139   138    1
   115   141   144    1
   116   141   142    1
   117   157   156    2
   118   167   160   am
   119    81    78    1
   120   144   145    1
   121    93    94    1
   122    94    97    1
   123   154   142   am
   124   154   155    1
   125    78    77    1
   126    78    79    1
   127   142   143    2
   128    97    98    1
   129   213   211   ar
   130   213   214   ar
   131    98   100   ar
   132    98    99   ar
   133   156   155    1
   134   156   158   am
   135    80    79    2
   136   211   209   ar
   137    60    61    1
   138    77    71   am
   139   160   159    1
   140   160   161    2
   141   215   214    1
   142   145   146   ar
   143   145   147   ar
   144   196   195    2
   145   159   158    1
   146   159   162    1
   147   214   212   ar
   148   146   148   ar
   149    63    62    2
   150    71    72    2
   151    71    70    1
   152    61    62    1
   153    61    64    1
   154   209   208    1
   155   209   210   ar
   156    62    69   am
   157   205   208    1
   158   205   206    1
   159   205   204    1
   160    69    70    1
   161   195   204   am
   162   195   194    1
   163   147   150   ar
   164   147   149   ar
   165   206   207    2
   166   162   163    1
   167   212   210   ar
   168    70    73    1
   169   150   152   ar
   170   193   194    1
   171   193   191   am
   172   148   149   ar
   173   190   191    1
   174   190   189    1
   175   163   164    1
   176    64    65    1
   177   194   197    1
   178   149   151   ar
   179   191   192    2
   180   197   198    1
   181    75    74    2
   182   189   179   am
   183   152   153   ar
   184    92    90    1
   185    73    74    1
   186   166   164   ar
   187   164   165   ar
   188   180   179    2
   189    65    66    1
   190    74    76   am
   191   179   178    1
   192   151   153   ar
   193    90    89    1
   194   198   199   ar
   195   198   200   ar
   196   199   201   ar
   197    91    89    1
   198    67    66   ar
   199    66    68   ar
   200   178   177    1
   201   178   181    1
   202    89    86    1
   203   201   203   ar
   204   200   202   ar
   205   181   182    1
   206    86    85    1
   207    86    87    1
   208   203   202   ar
   209    87    88    2
   210   182   184   ar
   211   182   183   ar
   212   184   186   ar
   213   183   185   ar
   214   186   187   ar
   215   185   187   ar
   216   187   188    1
