@<TRIPOS>MOLECULE
tmp/2zhwB01.pdb
 176 177 0 0 0
SMALL
GASTEIGER

@<TRIPOS>ATOM
      1  N         22.7240   -5.9370   17.7530 N.3    43  HIS43      -0.1241
      2  CA        22.6020   -7.3240   17.3290 C.3    43  HIS43       0.1621
      3  C         21.8080   -7.4270   16.0280 C.2    43  HIS43       0.2264
      4  O         21.7980   -8.4870   15.4200 O.2    43  HIS43      -0.2867
      5  CB        21.9760   -8.1890   18.4160 C.3    43  HIS43       0.0745
      6  CG        20.4910   -8.1900   18.5790 C.ar   43  HIS43       0.0817
      7  ND1       19.8590   -7.4870   19.5830 N.ar   43  HIS43      -0.2268
      8  CD2       19.4920   -8.8140   17.9160 C.ar   43  HIS43       0.1154
      9  CE1       18.5580   -7.6640   19.5170 C.ar   43  HIS43       0.1986
     10  NE2       18.3020   -8.4690   18.5000 N.ar   43  HIS43      -0.2212
     11  N         25.9480  -10.1060   14.9080 N.3    47  TYR47      -0.1241
     12  CA        25.6810  -11.1850   15.8420 C.3    47  TYR47       0.1605
     13  C         26.3140  -12.4730   15.3140 C.2    47  TYR47       0.2264
     14  O         25.6600  -13.3170   14.7190 O.2    47  TYR47      -0.2867
     15  CB        24.1870  -11.3600   16.0890 C.3    47  TYR47       0.0534
     16  CG        23.9220  -12.2880   17.2530 C.ar   47  TYR47      -0.0201
     17  CD1       24.3260  -11.8870   18.5200 C.ar   47  TYR47      -0.0009
     18  CD2       23.2990  -13.5230   17.0920 C.ar   47  TYR47      -0.0009
     19  CE1       24.1140  -12.6940   19.6230 C.ar   47  TYR47       0.0417
     20  CE2       23.0850  -14.3260   18.2000 C.ar   47  TYR47       0.0417
     21  CZ        23.4930  -13.9040   19.4510 C.ar   47  TYR47       0.1957
     22  OH        23.2960  -14.6960   20.5550 O.3    47  TYR47      -0.2866
     23  N         25.0070  -16.1630   14.8500 N.3    50  TRP50      -0.1241
     24  CA        23.9870  -16.5190   13.8560 C.3    50  TRP50       0.1605
     25  C         24.4590  -16.1240   12.4540 C.2    50  TRP50       0.2264
     26  O         23.6890  -16.1780   11.4970 O.2    50  TRP50      -0.2867
     27  CB        22.6450  -15.8670   14.1740 C.3    50  TRP50       0.0550
     28  CG        21.9080  -16.4900   15.3220 C.ar   50  TRP50       0.0003
     29  CD1       22.2470  -17.6170   16.0170 C.ar   50  TRP50       0.0946
     30  CD2       20.6910  -16.0150   15.9140 C.ar   50  TRP50       0.0152
     31  NE1       21.3220  -17.8730   17.0010 N.ar   50  TRP50      -0.2442
     32  CE2       20.3560  -16.9020   16.9580 C.ar   50  TRP50       0.0810
     33  CE3       19.8540  -14.9220   15.6580 C.ar   50  TRP50       0.0012
     34  CZ2       19.2200  -16.7300   17.7450 C.ar   50  TRP50       0.0191
     35  CZ3       18.7270  -14.7550   16.4430 C.ar   50  TRP50       0.0001
     36  CH2       18.4180  -15.6510   17.4730 C.ar   50  TRP50       0.0015
     37  N         25.5420  -13.0830   11.6220 N.3    52  LYS52      -0.1245
     38  CA        25.1080  -11.7400   11.2790 C.3    52  LYS52       0.1561
     39  C         26.2610  -10.7430   11.4190 C.2    52  LYS52       0.2260
     40  O         26.8290  -10.5450   12.4910 O.2    52  LYS52      -0.2867
     41  CB        23.9340  -11.2800   12.1510 C.3    52  LYS52       0.0271
     42  CG        22.8800  -10.4520   11.4410 C.3    52  LYS52       0.0035
     43  CD        21.9120   -9.7670   12.3870 C.3    52  LYS52       0.0206
     44  CE        20.6430  -10.5700   12.6160 C.3    52  LYS52       0.1093
     45  NZ        20.1430  -10.4540   14.0140 N.3    52  LYS52      -0.1314
     46  N         24.5910   -9.6350   25.5980 N.3    96  LEU96      -0.1245
     47  CA        24.0650   -8.5320   24.7870 C.3    96  LEU96       0.1561
     48  C         24.1740   -7.2170   25.5360 C.2    96  LEU96       0.2260
     49  O         23.4700   -6.2340   25.3000 O.2    96  LEU96      -0.2867
     50  CB        22.6150   -8.7740   24.3770 C.3    96  LEU96       0.0270
     51  CG        22.3190   -9.0170   22.9070 C.3    96  LEU96       0.0019
     52  CD1       23.1120  -10.2060   22.3930 C.3    96  LEU96       0.0001
     53  CD2       20.8260   -9.2310   22.6790 C.3    96  LEU96       0.0001
     54  N          4.2090   -8.7270   24.8480 N.3   191  ASP191     -0.1225
     55  CA         5.6740   -8.7660   24.8420 C.3   191  ASP191      0.1805
     56  C          6.1530   -8.4180   23.4390 C.2   191  ASP191      0.2598
     57  O          5.3290   -8.4560   22.5320 O.2   191  ASP191     -0.2718
     58  CB         6.2000  -10.1360   25.2410 C.3   191  ASP191      0.1424
     59  CG         7.6890  -10.2430   25.4560 C.2   191  ASP191      0.3668
     60  OD1        8.3960   -9.2120   25.5130 O.co2 191  ASP191     -0.2456
     61  OD2        8.1680  -11.4010   25.5830 O.co2 191  ASP191     -0.2456
     62  N          7.4250   -8.0940   23.3130 N.am  192  ALA192     -0.1966
     63  CA         8.0810   -7.9650   22.0300 C.3   192  ALA192      0.1728
     64  C          8.3940   -9.3820   21.5500 C.2   192  ALA192      0.2616
     65  O          8.1260  -10.3260   22.2820 O.2   192  ALA192     -0.2715
     66  CB         9.3640   -7.1710   22.0740 C.3   192  ALA192      0.0334
     67  N          8.9600   -9.4860   20.3620 N.am  193  CYS193     -0.1954
     68  CA         9.2910  -10.8260   19.8730 C.3   193  CYS193      0.1843
     69  C         10.3240  -10.6660   18.7690 C.2   193  CYS193      0.2625
     70  O         10.6540   -9.5060   18.4880 O.2   193  CYS193     -0.2714
     71  CB         8.0520  -11.5380   19.3570 C.3   193  CYS193      0.0997
     72  SG         8.1860  -13.3210   19.1290 S.3   193  CYS193     -0.0797
     73  N         10.7690  -11.7890   18.2190 N.am  194  GLU194     -0.1977
     74  CA        11.7130  -11.7280   17.1110 C.3   194  GLU194      0.1602
     75  C         11.1480  -10.8300   16.0080 C.2   194  GLU194      0.2287
     76  O          9.9870  -10.9730   15.6230 O.2   194  GLU194     -0.2864
     77  CB        12.0230  -13.1070   16.5190 C.3   194  GLU194      0.0415
     78  CG        11.6240  -13.2320   15.0600 C.3   194  GLU194      0.1163
     79  CD        12.7740  -13.3040   14.0800 C.2   194  GLU194      0.3649
     80  OE1       12.9880  -12.3250   13.3260 O.co2 194  GLU194     -0.2457
     81  OE2       13.4750  -14.3400   14.0410 O.co2 194  GLU194     -0.2457
     82  N         13.1850   -6.5380   17.4110 N.3   197  SER197     -0.1217
     83  CA        14.5210   -6.1770   17.8590 C.3   197  SER197      0.1889
     84  C         14.9010   -4.7910   17.3270 C.2   197  SER197      0.2288
     85  O         14.5220   -4.4910   16.2040 O.2   197  SER197     -0.2866
     86  CB        15.6080   -7.1400   17.3920 C.3   197  SER197      0.2089
     87  OG        15.4170   -8.4530   17.8590 O.3   197  SER197     -0.2183
     88  N         14.4380   -2.5220   22.0390 N.3   217  VAL217     -0.1231
     89  CA        14.1630   -3.9570   22.1400 C.3   217  VAL217      0.1692
     90  C         15.4420   -4.7430   21.9330 C.2   217  VAL217      0.2593
     91  O         16.1140   -4.5750   20.9130 O.2   217  VAL217     -0.2718
     92  CB        13.1270   -4.4040   21.0960 C.3   217  VAL217      0.0266
     93  CG1       12.8110   -5.8820   21.2410 C.3   217  VAL217      0.0020
     94  CG2       11.8490   -3.5720   21.2190 C.3   217  VAL217      0.0020
     95  N         15.8130   -5.5970   22.8850 N.am  218  SER218     -0.1938
     96  CA        17.1080   -6.2760   22.8170 C.3   218  SER218      0.2055
     97  C         16.9680   -7.7910   22.8730 C.2   218  SER218      0.2643
     98  O         17.3550   -8.4920   21.9360 O.2   218  SER218     -0.2714
     99  CB        17.9990   -5.7750   23.9460 C.3   218  SER218      0.2130
    100  OG        19.3150   -6.3030   23.9450 O.3   218  SER218     -0.2179
    101  N         16.4280   -8.3570   23.9570 N.am  219  TRP219     -0.1959
    102  CA        16.2760   -9.8010   24.0220 C.3   219  TRP219      0.1771
    103  C         15.2510  -10.2570   25.0640 C.2   219  TRP219      0.2620
    104  O         14.7620   -9.5070   25.8950 O.2   219  TRP219     -0.2715
    105  CB        17.6020  -10.5030   24.3440 C.3   219  TRP219      0.0590
    106  CG        18.1750  -10.1620   25.6880 C.ar  219  TRP219      0.0006
    107  CD1       18.9240   -9.0560   25.9800 C.ar  219  TRP219      0.0946
    108  CD2       18.0730  -10.8950   26.9160 C.ar  219  TRP219      0.0152
    109  NE1       19.2920   -9.0480   27.2970 N.ar  219  TRP219     -0.2442
    110  CE2       18.7790  -10.1720   27.8990 C.ar  219  TRP219      0.0810
    111  CE3       17.4520  -12.0930   27.2880 C.ar  219  TRP219      0.0012
    112  CZ2       18.8870  -10.5990   29.2260 C.ar  219  TRP219      0.0191
    113  CZ3       17.5570  -12.5180   28.5970 C.ar  219  TRP219      0.0001
    114  CH2       18.2660  -11.7760   29.5550 C.ar  219  TRP219      0.0015
    115  N         14.9910  -11.5490   24.9500 N.am  220  GLY220     -0.1940
    116  CA        14.0930  -12.3540   25.7080 C.3   220  GLY220      0.2014
    117  C         14.2840  -13.8460   25.4540 C.2   220  GLY220      0.2639
    118  O         15.0940  -14.2140   24.6050 O.2   220  GLY220     -0.2714
    119  N         13.5330  -14.6240   26.2030 N.am  221  GLU221     -0.1963
    120  CA        13.4260  -16.0760   26.2510 C.3   221  GLU221      0.1733
    121  C         12.0320  -16.5230   25.8370 C.2   221  GLU221      0.2617
    122  O         11.0570  -16.5710   26.5910 O.2   221  GLU221     -0.2715
    123  CB        13.7800  -16.5650   27.6610 C.3   221  GLU221      0.0429
    124  CG        15.2470  -16.3630   28.0200 C.3   221  GLU221      0.1163
    125  CD        15.5070  -15.9260   29.4430 C.2   221  GLU221      0.3649
    126  OE1       16.5360  -16.3590   30.0060 O.co2 221  GLU221     -0.2457
    127  OE2       14.7120  -15.1490   30.0140 O.co2 221  GLU221     -0.2457
    128  N         11.9020  -16.8600   24.5570 N.am  222  GLY222     -0.1940
    129  CA        10.5600  -17.0550   24.0170 C.3   222  GLY222      0.2014
    130  C          9.8750  -15.7050   23.8350 C.2   222  GLY222      0.2639
    131  O         10.5330  -14.6710   23.9900 O.2   222  GLY222     -0.2714
    132  N          8.5930  -15.6850   23.5050 N.am  223  CYS223     -0.1967
    133  CA         7.8140  -14.4500   23.4320 C.3   223  CYS223      0.1712
    134  C          6.5340  -14.6070   24.2620 C.2   223  CYS223      0.2296
    135  O          5.7730  -15.5690   24.1130 O.2   223  CYS223     -0.2864
    136  CB         7.4930  -14.0540   21.9950 C.3   223  CYS223      0.0983
    137  SG         8.9240  -13.9960   20.8940 S.3   223  CYS223     -0.0798
    138  N         10.2540  -12.0100   31.1220 N.3   229  TYR229     -0.1227
    139  CA        10.1240  -10.5820   30.8440 C.3   229  TYR229      0.1736
    140  C         10.9890  -10.1670   29.6640 C.2   229  TYR229      0.2596
    141  O         12.0130  -10.7800   29.3600 O.2   229  TYR229     -0.2718
    142  CB        10.4660   -9.7620   32.1070 C.3   229  TYR229      0.0548
    143  CG         9.5620  -10.1590   33.2540 C.ar  229  TYR229     -0.0200
    144  CD1        9.9570  -11.1370   34.1660 C.ar  229  TYR229     -0.0009
    145  CD2        8.3170   -9.5590   33.3990 C.ar  229  TYR229     -0.0009
    146  CE1        9.1120  -11.4880   35.2050 C.ar  229  TYR229      0.0417
    147  CE2        7.4720   -9.9130   34.4340 C.ar  229  TYR229      0.0417
    148  CZ         7.8790  -10.8810   35.3300 C.ar  229  TYR229      0.1957
    149  OH         7.0330  -11.2270   36.3620 O.3   229  TYR229     -0.2866
    150  N         10.6030   -9.1050   28.9540 N.am  230  GLY230     -0.1942
    151  CA        11.4290   -8.6970   27.8190 C.3   230  GLY230      0.2014
    152  C         12.5520   -7.7950   28.2890 C.2   230  GLY230      0.2639
    153  O         12.3890   -7.0410   29.2460 O.2   230  GLY230     -0.2714
    154  N         13.7030   -7.8440   27.6300 N.am  231  PHE231     -0.1959
    155  CA        14.8310   -7.0250   28.0570 C.3   231  PHE231      0.1771
    156  C         15.0740   -5.9320   27.0310 C.2   231  PHE231      0.2619
    157  O         14.8730   -6.1300   25.8400 O.2   231  PHE231     -0.2715
    158  CB        16.0760   -7.9000   28.2670 C.3   231  PHE231      0.0574
    159  CG        15.9680   -8.6460   29.5970 C.ar  231  PHE231     -0.0200
    160  CD1       15.1600   -9.7560   29.7350 C.ar  231  PHE231     -0.0042
    161  CD2       16.6830   -8.1800   30.6920 C.ar  231  PHE231     -0.0042
    162  CE1       15.0590  -10.4040   30.9510 C.ar  231  PHE231     -0.0003
    163  CE2       16.5950   -8.8320   31.8990 C.ar  231  PHE231     -0.0003
    164  CZ        15.7860   -9.9440   32.0350 C.ar  231  PHE231     -0.0000
    165  N         15.4530   -4.7690   27.5370 N.am  232  TYR232     -0.1974
    166  CA        15.6700   -3.5750   26.7400 C.3   232  TYR232      0.1639
    167  C         17.0110   -2.9530   27.0360 C.2   232  TYR232      0.2290
    168  O         17.4270   -2.9050   28.1950 O.2   232  TYR232     -0.2864
    169  CB        14.5440   -2.5370   27.0040 C.3   232  TYR232      0.0560
    170  CG        13.2130   -3.1870   26.6880 C.ar  232  TYR232     -0.0198
    171  CD1       12.5360   -3.9400   27.6400 C.ar  232  TYR232     -0.0009
    172  CD2       12.6640   -3.0400   25.4250 C.ar  232  TYR232     -0.0009
    173  CE1       11.3250   -4.5380   27.3600 C.ar  232  TYR232      0.0417
    174  CE2       11.4600   -3.6420   25.1530 C.ar  232  TYR232      0.0417
    175  CZ        10.7970   -4.3790   26.1000 C.ar  232  TYR232      0.1957
    176  OH         9.6000   -4.9690   25.7850 O.3   232  TYR232     -0.2866
@<TRIPOS>BOND
     1    38    39    1
     2    38    37    1
     3    38    41    1
     4    39    40    2
     5    42    41    1
     6    42    43    1
     7    26    25    2
     8    43    44    1
     9    25    24    1
    10    44    45    1
    11    80    79   ar
    12    24    27    1
    13    24    23    1
    14    81    79   ar
    15    79    78    1
    16    27    28    1
    17    14    13    2
    18    11    12    1
    19    78    77    1
    20    13    12    1
    21    28    30   ar
    22    28    29   ar
    23     4     3    2
    24    76    75    2
    25    33    30   ar
    26    33    35   ar
    27    12    15    1
    28    30    32   ar
    29    75    74    1
    30    29    31   ar
    31     3     2    1
    32    15    16    1
    33    85    84    2
    34    35    36   ar
    35    77    74    1
    36    32    31   ar
    37    32    34   ar
    38    18    16   ar
    39    18    20   ar
    40    74    73    1
    41    16    17   ar
    42    84    83    1
    43     2     1    1
    44     2     5    1
    45    86    83    1
    46    86    87    1
    47    82    83    1
    48    36    34   ar
    49     8    10   ar
    50     8     6   ar
    51    20    21   ar
    52    73    69   am
    53     5     6    1
    54    70    69    2
    55    10     9   ar
    56    17    19   ar
    57     6     7   ar
    58    69    68    1
    59    72    71    1
    60    72   137    1
    61    71    68    1
    62    21    19   ar
    63    21    22    1
    64     9     7   ar
    65    68    67    1
    66    67    64   am
    67   137   136    1
    68    91    90    2
    69    92    94    1
    70    92    93    1
    71    92    89    1
    72    64    63    1
    73    64    65    2
    74    90    89    1
    75    90    95   am
    76    98    97    2
    77   136   133    1
    78    63    66    1
    79    63    62    1
    80    88    89    1
    81    52    51    1
    82    57    56    2
    83    53    51    1
    84    96    97    1
    85    96    95    1
    86    96    99    1
    87    97   101   am
    88    51    50    1
    89    62    56   am
    90   133   132    1
    91   133   134    1
    92    56    55    1
    93   132   130   am
    94   130   131    2
    95   130   129    1
    96   100    99    1
    97   101   102    1
    98   129   128    1
    99   102   105    1
   100   102   103    1
   101   135   134    2
   102   105   106    1
   103    50    47    1
   104   128   121   am
   105   118   117    2
   106    47    48    1
   107    47    46    1
   108    55    54    1
   109    55    58    1
   110   115   103   am
   111   115   116    1
   112   103   104    2
   113   174   172   ar
   114   174   175   ar
   115    58    59    1
   116    49    48    2
   117   172   170   ar
   118   117   116    1
   119   117   119   am
   120    59    60   ar
   121    59    61   ar
   122   106   107   ar
   123   106   108   ar
   124   176   175    1
   125   121   120    1
   126   121   122    2
   127   157   156    2
   128   107   109   ar
   129   175   173   ar
   130   119   120    1
   131   120   123    1
   132   170   169    1
   133   170   171   ar
   134   166   169    1
   135   166   167    1
   136   166   165    1
   137   108   111   ar
   138   108   110   ar
   139   156   165   am
   140   156   155    1
   141   167   168    2
   142   111   113   ar
   143   109   110   ar
   144   173   171   ar
   145   154   155    1
   146   154   152   am
   147   123   124    1
   148   151   152    1
   149   151   150    1
   150   110   112   ar
   151   124   125    1
   152   155   158    1
   153   158   159    1
   154   152   153    2
   155   113   114   ar
   156   150   140   am
   157   112   114   ar
   158   141   140    2
   159   125   126   ar
   160   125   127   ar
   161   159   160   ar
   162   159   161   ar
   163   140   139    1
   164   160   162   ar
   165   161   163   ar
   166   139   138    1
   167   139   142    1
   168   162   164   ar
   169   163   164   ar
   170   142   143    1
   171   143   145   ar
   172   143   144   ar
   173   145   147   ar
   174   144   146   ar
   175   147   148   ar
   176   146   148   ar
   177   148   149    1
