@<TRIPOS>MOLECULE
tmp/2zhzB00.pdb
 104 97 0 0 0
SMALL
GASTEIGER

@<TRIPOS>ATOM
      1  N         -8.5380   -7.4470   38.0760 N.3     7  ARG7       -0.1231
      2  CA        -8.0800   -8.8240   37.9580 C.3     7  ARG7        0.1694
      3  C         -6.5650   -8.7700   37.7700 C.2     7  ARG7        0.2593
      4  O         -6.0270   -7.7710   37.2930 O.2     7  ARG7       -0.2718
      5  CB        -8.7740   -9.5300   36.7860 C.3     7  ARG7        0.0321
      6  CG       -10.2660   -9.7410   37.0400 C.3     7  ARG7        0.0489
      7  CD       -11.0300  -10.3060   35.8420 C.3     7  ARG7        0.2205
      8  NE       -11.0450  -11.7670   35.7950 N.pl3   7  ARG7       -0.0865
      9  CZ       -10.0320  -12.5180   35.3780 C.cat   7  ARG7        0.5346
     10  NH1       -8.9070  -11.9500   34.9640 N.pl3   7  ARG7        0.1354
     11  NH2      -10.1460  -13.8400   35.3740 N.pl3   7  ARG7        0.1354
     12  N         -5.8900   -9.8410   38.1720 N.am    8  THR8       -0.1939
     13  CA        -4.4320   -9.9560   38.1240 C.3     8  THR8        0.2028
     14  C         -3.6470   -9.2160   37.0290 C.2     8  THR8        0.2643
     15  O         -2.7310   -8.4360   37.3280 O.2     8  THR8       -0.2714
     16  CB        -4.0370  -11.4470   38.1080 C.3     8  THR8        0.1808
     17  OG1       -4.6130  -12.0950   39.2490 O.3     8  THR8       -0.2208
     18  CG2       -2.5360  -11.6070   38.1570 C.3     8  THR8        0.0379
     19  N         -3.9920   -9.4630   35.7720 N.am    9  GLY9       -0.1939
     20  CA        -3.2890   -8.8240   34.6740 C.3     9  GLY9        0.2014
     21  C         -4.0440   -7.7080   33.9750 C.2     9  GLY9        0.2638
     22  O         -3.7840   -7.4150   32.8080 O.2     9  GLY9       -0.2714
     23  N         -4.9790   -7.0800   34.6780 N.am   10  ASP10      -0.1971
     24  CA        -5.7440   -5.9850   34.0900 C.3    10  ASP10       0.1709
     25  C         -4.8660   -4.7950   33.7230 C.2    10  ASP10       0.2293
     26  O         -5.2470   -3.9860   32.8760 O.2    10  ASP10      -0.2864
     27  CB        -6.8410   -5.5000   35.0450 C.3    10  ASP10       0.1436
     28  CG        -8.1290   -6.2810   34.9040 C.2    10  ASP10       0.3671
     29  OD1       -8.2530   -7.0700   33.9460 O.co2  10  ASP10      -0.2456
     30  OD2       -9.0280   -6.0920   35.7490 O.co2  10  ASP10      -0.2456
     31  N          2.0860   -9.3070   33.3680 N.3    14  THR14      -0.1203
     32  CA         1.8610  -10.6780   33.8000 C.3    14  THR14       0.1994
     33  C          3.1250  -11.1760   34.4940 C.2    14  THR14       0.2618
     34  O          4.1720  -10.5300   34.4310 O.2    14  THR14      -0.2717
     35  CB         1.5160  -11.5990   32.6050 C.3    14  THR14       0.1784
     36  OG1        1.0950  -12.8760   33.0940 O.3    14  THR14      -0.2211
     37  CG2        2.7260  -11.7800   31.6950 C.3    14  THR14       0.0376
     38  N          3.0280  -12.3160   35.1650 N.am   15  GLY15      -0.1942
     39  CA         4.1860  -12.8410   35.8620 C.3    15  GLY15       0.2014
     40  C          4.7970  -14.0650   35.2150 C.2    15  GLY15       0.2639
     41  O          4.1090  -14.8360   34.5480 O.2    15  GLY15      -0.2714
     42  N          6.1010  -14.2300   35.4030 N.am   16  LEU16      -0.1963
     43  CA         6.8220  -15.3760   34.8710 C.3    16  LEU16       0.1728
     44  C          6.9950  -16.3810   36.0050 C.2    16  LEU16       0.2616
     45  O          6.7950  -16.0440   37.1730 O.2    16  LEU16      -0.2715
     46  CB         8.1860  -14.9420   34.3330 C.3    16  LEU16       0.0311
     47  CG         8.1370  -14.0500   33.0900 C.3    16  LEU16       0.0022
     48  CD1        9.5380  -13.5900   32.7280 C.3    16  LEU16       0.0001
     49  CD2        7.5090  -14.8230   31.9400 C.3    16  LEU16       0.0001
     50  N          7.3660  -17.6080   35.6580 N.am   17  GLY17      -0.1955
     51  CA         7.5390  -18.6510   36.6560 C.3    17  GLY17       0.1869
     52  C          8.5600  -18.4070   37.7550 C.2    17  GLY17       0.2309
     53  O          8.5320  -19.0820   38.7860 O.2    17  GLY17      -0.2863
     54  N          7.9300   -9.9260   36.8280 N.3    21  ARG21      -0.1245
     55  CA         6.7960   -9.4160   36.0660 C.3    21  ARG21       0.1563
     56  C          7.2620   -8.7580   34.7840 C.2    21  ARG21       0.2260
     57  O          8.3160   -8.1230   34.7470 O.2    21  ARG21      -0.2867
     58  CB         6.0040   -8.3870   36.8640 C.3    21  ARG21       0.0307
     59  CG         5.1880   -8.9610   37.9930 C.3    21  ARG21       0.0489
     60  CD         4.1190   -7.9700   38.4260 C.3    21  ARG21       0.2205
     61  NE         2.9600   -7.9790   37.5360 N.pl3  21  ARG21      -0.0865
     62  CZ         2.1480   -9.0210   37.3820 C.cat  21  ARG21       0.5346
     63  NH1        2.3710  -10.1440   38.0560 N.pl3  21  ARG21       0.1354
     64  NH2        1.1060   -8.9370   36.5670 N.pl3  21  ARG21       0.1354
     65  N          2.7130   -7.5820   28.9390 N.3    24  LYS24      -0.1245
     66  CA         2.2230   -8.6370   28.0610 C.3    24  LYS24       0.1561
     67  C          2.7050   -8.5980   26.6160 C.2    24  LYS24       0.2260
     68  O          2.5610   -9.5860   25.8940 O.2    24  LYS24      -0.2867
     69  CB         0.6960   -8.6950   28.1240 C.3    24  LYS24       0.0271
     70  CG         0.2160   -9.3560   29.4080 C.3    24  LYS24       0.0035
     71  CD        -1.2820   -9.2610   29.6070 C.3    24  LYS24       0.0206
     72  CE        -1.6830  -10.0180   30.8620 C.3    24  LYS24       0.1093
     73  NZ        -3.1470   -9.9610   31.1150 N.3    24  LYS24      -0.1314
     74  N          6.6930  -13.1730   26.3290 N.3    29  ILE29      -0.1231
     75  CA         5.2740  -13.4850   26.4310 C.3    29  ILE29       0.1692
     76  C          4.7130  -13.8000   25.0450 C.2    29  ILE29       0.2591
     77  O          3.8300  -14.6420   24.9030 O.2    29  ILE29      -0.2718
     78  CB         4.4900  -12.3060   27.0660 C.3    29  ILE29       0.0266
     79  CG1        5.0350  -12.0320   28.4730 C.3    29  ILE29       0.0019
     80  CG2        3.0080  -12.6350   27.1430 C.3    29  ILE29       0.0020
     81  CD1        5.0170  -13.2500   29.3910 C.3    29  ILE29       0.0001
     82  N          5.2340  -13.1240   24.0290 N.am   30  ALA30      -0.1980
     83  CA         4.7980  -13.3610   22.6590 C.3    30  ALA30       0.1597
     84  C          5.1810  -14.7760   22.2180 C.2    30  ALA30       0.2287
     85  O          4.3860  -15.4730   21.5850 O.2    30  ALA30      -0.2864
     86  CB         5.4270  -12.3340   21.7210 C.3    30  ALA30       0.0319
     87  N          5.7730  -17.3890   24.1790 N.3    32  ILE32      -0.1231
     88  CA         4.9500  -18.3230   24.9430 C.3    32  ILE32       0.1692
     89  C          3.5780  -18.4110   24.2780 C.2    32  ILE32       0.2592
     90  O          3.0020  -19.4930   24.1560 O.2    32  ILE32      -0.2718
     91  CB         4.7560  -17.8490   26.3980 C.3    32  ILE32       0.0266
     92  CG1        6.0690  -17.9820   27.1720 C.3    32  ILE32       0.0019
     93  CG2        3.6440  -18.6510   27.0670 C.3    32  ILE32       0.0020
     94  CD1        6.0870  -17.2190   28.4850 C.3    32  ILE32       0.0001
     95  N          3.0660  -17.2630   23.8420 N.am   33  GLY33      -0.1957
     96  CA         1.7590  -17.2280   23.2050 C.3    33  GLY33       0.1869
     97  C          1.6820  -18.0040   21.9030 C.2    33  GLY33       0.2309
     98  O          0.7320  -18.7600   21.6790 O.2    33  GLY33      -0.2863
     99  N          8.5650  -19.8810   30.2210 N.3    73  CYS73      -0.1235
    100  CA         7.9490  -19.2070   31.3700 C.3    73  CYS73       0.1677
    101  C          8.8930  -19.0710   32.5590 C.2    73  CYS73       0.2270
    102  O          8.7640  -18.1470   33.3670 O.2    73  CYS73      -0.2867
    103  CB         6.7060  -19.9670   31.8330 C.3    73  CYS73       0.0956
    104  SG         5.2990  -19.8910   30.7150 S.3    73  CYS73      -0.0801
@<TRIPOS>BOND
     1    85    84    2
     2    98    97    2
     3    86    83    1
     4    97    96    1
     5    84    83    1
     6    83    82    1
     7    96    95    1
     8    95    89   am
     9    82    76   am
    10    90    89    2
    11    87    88    1
    12    89    88    1
    13    77    76    2
    14    88    91    1
    15    76    75    1
    16    68    67    2
    17    74    75    1
    18    91    93    1
    19    91    92    1
    20    75    78    1
    21    67    66    1
    22    78    80    1
    23    78    79    1
    24    92    94    1
    25    66    69    1
    26    66    65    1
    27    69    70    1
    28    79    81    1
    29    70    71    1
    30    71    72    1
    31    99   100    1
    32   104   103    1
    33    72    73    1
    34   100   103    1
    35   100   101    1
    36    37    35    1
    37    49    47    1
    38   101   102    2
    39    35    36    1
    40    35    32    1
    41    48    47    1
    42    22    21    2
    43    26    25    2
    44    47    46    1
    45    31    32    1
    46    25    24    1
    47    32    33    1
    48    29    28   ar
    49    21    20    1
    50    21    23   am
    51    24    23    1
    52    24    27    1
    53    46    43    1
    54    34    33    2
    55    33    38   am
    56    41    40    2
    57    20    19    1
    58    57    56    2
    59    56    55    1
    60    43    42    1
    61    43    44    1
    62    28    27    1
    63    28    30   ar
    64    10     9    1
    65    38    39    1
    66    40    42   am
    67    40    39    1
    68    11     9    1
    69     9     8    2
    70    50    44   am
    71    50    51    1
    72    19    14   am
    73     8     7    1
    74     7     6    1
    75    44    45    2
    76    55    54    1
    77    55    58    1
    78    64    62    1
    79    51    52    1
    80     5     6    1
    81     5     2    1
    82    58    59    1
    83    14    15    2
    84    14    13    1
    85     4     3    2
    86    62    61    2
    87    62    63    1
    88    61    60    1
    89    52    53    2
    90     3     2    1
    91     3    12   am
    92     2     1    1
    93    59    60    1
    94    16    13    1
    95    16    18    1
    96    16    17    1
    97    13    12    1
