@<TRIPOS>MOLECULE
tmp/2zi5D01.pdb
 155 144 0 0 0
SMALL
GASTEIGER

@<TRIPOS>ATOM
      1  N         87.2630   62.2100  -14.1440 N.3    11  ILE11      -0.1245
      2  CA        88.0280   62.6540  -15.2920 C.3    11  ILE11       0.1561
      3  C         89.5160   62.6510  -14.9800 C.2    11  ILE11       0.2260
      4  O         89.9280   63.1340  -13.9220 O.2    11  ILE11      -0.2867
      5  CB        87.6050   64.0850  -15.6780 C.3    11  ILE11       0.0252
      6  CG1       86.4930   64.1320  -16.7190 C.3    11  ILE11       0.0019
      7  CG2       88.8290   64.8790  -16.1030 C.3    11  ILE11       0.0019
      8  CD1       85.9300   65.5140  -16.9560 C.3    11  ILE11       0.0001
      9  N         87.5060   53.6420  -23.5780 N.3    34  GLU34      -0.1245
     10  CA        86.2580   54.4040  -23.6970 C.3    34  GLU34       0.1567
     11  C         86.2330   55.1840  -24.9950 C.2    34  GLU34       0.2260
     12  O         87.1380   55.9560  -25.3080 O.2    34  GLU34      -0.2867
     13  CB        86.1330   55.3070  -22.4900 C.3    34  GLU34       0.0388
     14  CG        84.9130   56.2400  -22.5540 C.3    34  GLU34       0.1160
     15  CD        84.9590   57.1110  -21.3220 C.2    34  GLU34       0.3649
     16  OE1       84.2270   56.8390  -20.3610 O.co2  34  GLU34      -0.2457
     17  OE2       85.7810   58.0630  -21.3450 O.co2  34  GLU34      -0.2457
     18  N         84.6010   57.7250  -25.9830 N.3    36  VAL36      -0.1245
     19  CA        84.7640   59.1630  -25.8240 C.3    36  VAL36       0.1561
     20  C         86.2520   59.5040  -25.7000 C.2    36  VAL36       0.2260
     21  O         86.7450   60.4360  -26.3280 O.2    36  VAL36      -0.2867
     22  CB        84.0950   59.7580  -24.5800 C.3    36  VAL36       0.0252
     23  CG1       84.5950   61.1930  -24.4270 C.3    36  VAL36       0.0019
     24  CG2       82.5850   59.6940  -24.6770 C.3    36  VAL36       0.0019
     25  N         81.7060   66.2080  -29.8650 N.3    45  LEU45      -0.1245
     26  CA        82.4000   66.5430  -28.6120 C.3    45  LEU45       0.1561
     27  C         82.7070   68.0380  -28.5050 C.2    45  LEU45       0.2260
     28  O         82.6350   68.6140  -27.4200 O.2    45  LEU45      -0.2867
     29  CB        83.6850   65.7160  -28.4670 C.3    45  LEU45       0.0270
     30  CG        84.5150   65.9430  -27.2010 C.3    45  LEU45       0.0019
     31  CD1       83.6910   65.7960  -25.9370 C.3    45  LEU45       0.0001
     32  CD2       85.6870   64.9650  -27.1230 C.3    45  LEU45       0.0001
     33  N         79.6590   69.6940  -27.6960 N.3    48  MET48      -0.1230
     34  CA        79.2690   69.6300  -26.2850 C.3    48  MET48       0.1702
     35  C         80.0300   70.6460  -25.4310 C.2    48  MET48       0.2592
     36  O         79.4990   71.4000  -24.6190 O.2    48  MET48      -0.2718
     37  CB        79.5270   68.2370  -25.6920 C.3    48  MET48       0.0401
     38  CG        78.2350   67.4700  -25.4590 C.3    48  MET48       0.0596
     39  SD        77.8760   67.1950  -23.7320 S.3    48  MET48      -0.1393
     40  CE        78.4400   68.7300  -23.0020 C.3    48  MET48       0.0692
     41  N         81.3430   70.6040  -25.6390 N.am   49  TYR49      -0.1976
     42  CA        82.2530   71.5510  -25.0150 C.3    49  TYR49       0.1639
     43  C         81.7310   72.9650  -25.2560 C.2    49  TYR49       0.2290
     44  O         81.6610   73.7680  -24.3320 O.2    49  TYR49      -0.2864
     45  CB        83.6560   71.3530  -25.5880 C.3    49  TYR49       0.0560
     46  CG        84.5440   70.3830  -24.8450 C.ar   49  TYR49      -0.0198
     47  CD1       85.4720   69.5800  -25.5000 C.ar   49  TYR49      -0.0009
     48  CD2       84.4670   70.2630  -23.4710 C.ar   49  TYR49      -0.0009
     49  CE1       86.2910   68.6900  -24.8220 C.ar   49  TYR49       0.0417
     50  CE2       85.2750   69.3810  -22.7740 C.ar   49  TYR49       0.0417
     51  CZ        86.1860   68.5950  -23.4550 C.ar   49  TYR49       0.1957
     52  OH        86.9730   67.7280  -22.7180 O.3    49  TYR49      -0.2866
     53  N         74.8720   63.8650  -27.5740 N.3    59  PHE59      -0.1227
     54  CA        76.1880   63.3590  -27.2060 C.3    59  PHE59       0.1736
     55  C         76.0110   62.0790  -26.3880 C.2    59  PHE59       0.2595
     56  O         76.6040   61.0540  -26.6950 O.2    59  PHE59      -0.2718
     57  CB        76.9800   64.3830  -26.4060 C.3    59  PHE59       0.0547
     58  CG        78.3530   63.9710  -25.9040 C.ar   59  PHE59      -0.0202
     59  CD1       79.4880   64.2910  -26.6440 C.ar   59  PHE59      -0.0042
     60  CD2       78.5570   63.2920  -24.7160 C.ar   59  PHE59      -0.0042
     61  CE1       80.7500   63.9270  -26.2230 C.ar   59  PHE59      -0.0003
     62  CE2       79.8090   62.9090  -24.2730 C.ar   59  PHE59      -0.0003
     63  CZ        80.9130   63.2410  -25.0280 C.ar   59  PHE59      -0.0000
     64  N         75.2240   62.2400  -25.3440 N.am   60  GLN60      -0.1979
     65  CA        74.9220   61.2650  -24.3260 C.3    60  GLN60       0.1601
     66  C         74.2730   60.0500  -24.9880 C.2    60  GLN60       0.2287
     67  O         74.3610   58.9370  -24.4650 O.2    60  GLN60      -0.2864
     68  CB        74.0470   61.8820  -23.2520 C.3    60  GLN60       0.0394
     69  CG        74.7210   62.5190  -22.0470 C.3    60  GLN60       0.0908
     70  CD        76.1370   62.0610  -21.7780 C.2    60  GLN60       0.2608
     71  OE1       76.3570   60.8910  -21.4520 O.2    60  GLN60      -0.2717
     72  NE2       77.1120   62.9710  -21.9060 N.am   60  GLN60      -0.0878
     73  N         77.5440   58.4620  -27.4140 N.3    63  ALA63      -0.1245
     74  CA        78.5600   57.9040  -26.5400 C.3    63  ALA63       0.1562
     75  C         78.2100   56.5020  -26.0370 C.2    63  ALA63       0.2260
     76  O         78.9930   55.5550  -26.1520 O.2    63  ALA63      -0.2867
     77  CB        78.7570   58.7900  -25.3210 C.3    63  ALA63       0.0290
     78  N         79.7930   52.9790  -27.0060 N.3    67  ARG67      -0.1245
     79  CA        80.3490   52.1660  -25.9280 C.3    67  ARG67       0.1563
     80  C         79.7300   50.7690  -25.9600 C.2    67  ARG67       0.2260
     81  O         80.4700   49.7750  -25.8640 O.2    67  ARG67      -0.2867
     82  CB        80.1660   52.8720  -24.5910 C.3    67  ARG67       0.0307
     83  CG        79.6190   52.0700  -23.4300 C.3    67  ARG67       0.0489
     84  CD        80.5020   52.0970  -22.2090 C.3    67  ARG67       0.2205
     85  NE        80.5630   53.3800  -21.5230 N.pl3  67  ARG67      -0.0865
     86  CZ        81.7120   53.9390  -21.1480 C.cat  67  ARG67       0.5346
     87  NH1       82.8760   53.3360  -21.3920 N.pl3  67  ARG67       0.1354
     88  NH2       81.6940   55.1090  -20.5210 N.pl3  67  ARG67       0.1354
     89  N         85.2380   52.5140  -17.7060 N.3    88  ARG88      -0.1245
     90  CA        83.8900   52.9720  -17.3850 C.3    88  ARG88       0.1563
     91  C         82.8670   51.9980  -17.9960 C.2    88  ARG88       0.2260
     92  O         83.2610   51.0050  -18.5990 O.2    88  ARG88      -0.2867
     93  CB        83.6370   54.3990  -17.8410 C.3    88  ARG88       0.0307
     94  CG        84.4840   55.4580  -17.1160 C.3    88  ARG88       0.0489
     95  CD        83.9780   56.8420  -17.5340 C.3    88  ARG88       0.2205
     96  NE        84.5940   57.9140  -16.7330 N.pl3  88  ARG88      -0.0865
     97  CZ        85.0810   59.0080  -17.3170 C.cat  88  ARG88       0.5346
     98  NH1       84.9950   59.1170  -18.6330 N.pl3  88  ARG88       0.1354
     99  NH2       85.6390   59.9580  -16.5620 N.pl3  88  ARG88       0.1354
    100  N         77.8170   56.1780  -17.7860 N.3    93  ASP93      -0.1239
    101  CA        77.3290   57.0270  -18.8610 C.3    93  ASP93       0.1674
    102  C         76.1290   57.8450  -18.3650 C.2    93  ASP93       0.2266
    103  O         76.1500   59.0610  -18.4810 O.2    93  ASP93      -0.2867
    104  CB        76.9270   56.2200  -20.0960 C.3    93  ASP93       0.1410
    105  CG        78.0870   55.8410  -20.9890 C.2    93  ASP93       0.3668
    106  OD1       79.0850   56.5960  -21.0740 O.co2  93  ASP93      -0.2456
    107  OD2       78.0080   54.7760  -21.6470 O.co2  93  ASP93      -0.2456
    108  N         77.6540   61.0600  -15.7430 N.3    97  PHE97      -0.1241
    109  CA        77.6520   62.1580  -16.7060 C.3    97  PHE97       0.1605
    110  C         76.2670   62.6200  -17.1350 C.2    97  PHE97       0.2264
    111  O         76.0020   63.8290  -17.2030 O.2    97  PHE97      -0.2867
    112  CB        78.4990   61.7470  -17.9220 C.3    97  PHE97       0.0534
    113  CG        79.9930   61.6880  -17.6170 C.ar   97  PHE97      -0.0203
    114  CD1       80.6570   60.4680  -17.5310 C.ar   97  PHE97      -0.0042
    115  CD2       80.7360   62.8440  -17.4240 C.ar   97  PHE97      -0.0042
    116  CE1       82.0110   60.4260  -17.2520 C.ar   97  PHE97      -0.0003
    117  CE2       82.0900   62.8060  -17.1390 C.ar   97  PHE97      -0.0003
    118  CZ        82.7400   61.5830  -17.0500 C.ar   97  PHE97      -0.0000
    119  N         74.1130   66.1420  -16.0190 N.3   101  LEU101     -0.1245
    120  CA        73.7150   67.0410  -17.0930 C.3   101  LEU101      0.1561
    121  C         72.2490   67.4510  -16.9550 C.2   101  LEU101      0.2260
    122  O         71.9100   68.5900  -17.2590 O.2   101  LEU101     -0.2867
    123  CB        73.9660   66.4340  -18.4780 C.3   101  LEU101      0.0270
    124  CG        75.4220   66.4820  -18.9550 C.3   101  LEU101      0.0019
    125  CD1       75.6270   65.6090  -20.1870 C.3   101  LEU101      0.0001
    126  CD2       75.8560   67.9110  -19.2430 C.3   101  LEU101      0.0001
    127  N         90.5180   70.5560  -22.8780 N.3   155  GLU155     -0.1245
    128  CA        90.1840   70.2620  -21.4980 C.3   155  GLU155      0.1567
    129  C         90.5960   71.3710  -20.5430 C.2   155  GLU155      0.2260
    130  O         90.0440   71.4860  -19.4420 O.2   155  GLU155     -0.2867
    131  CB        90.8710   68.9560  -21.0590 C.3   155  GLU155      0.0388
    132  CG        90.6070   67.7740  -21.9780 C.3   155  GLU155      0.1160
    133  CD        90.4000   66.4710  -21.2330 C.2   155  GLU155      0.3649
    134  OE1       90.6200   66.4460  -20.0070 O.co2 155  GLU155     -0.2457
    135  OE2       90.0090   65.4570  -21.8490 O.co2 155  GLU155     -0.2457
    136  N         88.2540   73.3140  -18.1180 N.3   158  ILE158     -0.1245
    137  CA        87.4350   72.4110  -17.3200 C.3   158  ILE158      0.1561
    138  C         87.4210   72.8620  -15.8650 C.2   158  ILE158      0.2260
    139  O         88.4490   72.8760  -15.1840 O.2   158  ILE158     -0.2867
    140  CB        87.9460   70.9580  -17.4510 C.3   158  ILE158      0.0252
    141  CG1       87.5740   70.3390  -18.8040 C.3   158  ILE158      0.0019
    142  CG2       87.4960   70.0860  -16.2960 C.3   158  ILE158      0.0019
    143  CD1       87.1840   68.8870  -18.8270 C.3   158  ILE158      0.0001
    144  N         83.1070   71.6050  -11.4090 N.3   162  TYR162     -0.1241
    145  CA        82.6070   70.5440  -12.2710 C.3   162  TYR162      0.1605
    146  C         83.1910   69.1940  -11.8460 C.2   162  TYR162      0.2264
    147  O         82.4310   68.2770  -11.5230 O.2   162  TYR162     -0.2867
    148  CB        82.9470   70.8160  -13.7370 C.3   162  TYR162      0.0534
    149  CG        82.5680   69.6400  -14.6160 C.ar  162  TYR162     -0.0201
    150  CD1       81.2710   69.1430  -14.6080 C.ar  162  TYR162     -0.0009
    151  CD2       83.5050   69.0440  -15.4350 C.ar  162  TYR162     -0.0009
    152  CE1       80.9090   68.0710  -15.4050 C.ar  162  TYR162      0.0417
    153  CE2       83.1570   67.9760  -16.2330 C.ar  162  TYR162      0.0417
    154  CZ        81.8650   67.4950  -16.2160 C.ar  162  TYR162      0.1957
    155  OH        81.5440   66.4230  -17.0210 O.3   162  TYR162     -0.2866
@<TRIPOS>BOND
     1    25    26    1
     2    26    27    1
     3    26    29    1
     4    27    28    2
     5    29    30    1
     6    33    34    1
     7    53    54    1
     8    73    74    1
     9    54    57    1
    10    54    55    1
    11    30    32    1
    12    30    31    1
    13    78    79    1
    14    56    55    2
    15    59    61   ar
    16    59    58   ar
    17    74    75    1
    18    74    77    1
    19    57    58    1
    20    55    64   am
    21    21    20    2
    22    34    37    1
    23    34    35    1
    24    61    63   ar
    25    76    75    2
    26    18    19    1
    27    80    79    1
    28    80    81    2
    29    79    82    1
    30    58    60   ar
    31    19    20    1
    32    19    22    1
    33    37    38    1
    34    41    35   am
    35    41    42    1
    36    45    42    1
    37    45    46    1
    38    47    46   ar
    39    47    49   ar
    40    38    39    1
    41    35    36    2
    42    64    65    1
    43    12    11    2
    44    43    42    1
    45    43    44    2
    46    63    62   ar
    47    11    10    1
    48    66    67    2
    49    66    65    1
    50    46    48   ar
    51    49    51   ar
    52    60    62   ar
    53    24    22    1
    54    82    83    1
    55    22    23    1
    56    65    68    1
    57    39    40    1
    58    10     9    1
    59    10    13    1
    60    48    50   ar
    61    51    50   ar
    62    51    52    1
    63    83    84    1
    64    68    69    1
    65   127   128    1
    66    14    13    1
    67    14    15    1
    68    84    85    1
    69    69    70    1
    70   132   133    1
    71   132   131    1
    72    72    70   am
    73   135   133   ar
    74    70    71    2
    75   107   105   ar
    76    85    86    2
    77   128   131    1
    78   128   129    1
    79    87    86    1
    80    17    15   ar
    81    15    16   ar
    82   133   134   ar
    83    86    88    1
    84   106   105   ar
    85   105   104    1
    86   129   130    2
    87   125   124    1
    88   104   101    1
    89   126   124    1
    90   124   123    1
    91   101   102    1
    92   101   100    1
    93   143   141    1
    94   141   140    1
    95    98    97    1
    96    92    91    2
    97   103   102    2
    98   123   120    1
    99   136   137    1
   100    91    90    1
   101   112   113    1
   102   112   109    1
   103    93    90    1
   104    93    94    1
   105    89    90    1
   106   113   114   ar
   107   113   115   ar
   108    95    94    1
   109    95    96    1
   110   114   116   ar
   111   140   137    1
   112   140   142    1
   113   115   117   ar
   114   137   138    1
   115    97    96    2
   116    97    99    1
   117   122   121    2
   118   116   118   ar
   119   111   110    2
   120   117   118   ar
   121   110   109    1
   122   120   121    1
   123   120   119    1
   124   155   154    1
   125     8     6    1
   126     6     5    1
   127   109   108    1
   128   153   154   ar
   129   153   151   ar
   130   154   152   ar
   131     7     5    1
   132   138   139    2
   133     5     2    1
   134   151   149   ar
   135   152   150   ar
   136     2     3    1
   137     2     1    1
   138     3     4    2
   139   149   150   ar
   140   149   148    1
   141   148   145    1
   142   145   146    1
   143   145   144    1
   144   146   147    2
