@<TRIPOS>MOLECULE
tmp/2zi5D00.pdb
 114 109 0 0 0
SMALL
GASTEIGER

@<TRIPOS>ATOM
      1  N         90.3600   62.0900  -15.8390 N.3    12  ALA12      -0.1231
      2  CA        91.8000   62.1070  -15.6000 C.3    12  ALA12       0.1694
      3  C         92.2090   61.5520  -14.2440 C.2    12  ALA12       0.2592
      4  O         93.3160   61.8470  -13.7880 O.2    12  ALA12      -0.2718
      5  CB        92.3360   63.5380  -15.7320 C.3    12  ALA12       0.0304
      6  N         91.3540   60.7660  -13.5900 N.am   13  ALA13      -0.1966
      7  CA        91.7130   60.1020  -12.3560 C.3    13  ALA13       0.1728
      8  C         92.9660   59.2520  -12.6210 C.2    13  ALA13       0.2617
      9  O         93.8440   59.1800  -11.7670 O.2    13  ALA13      -0.2715
     10  CB        90.5860   59.2340  -11.8540 C.3    13  ALA13       0.0334
     11  N         92.9530   58.6550  -13.8060 N.am   14  GLY14      -0.1940
     12  CA        94.0000   57.8100  -14.3090 C.3    14  GLY14       0.2014
     13  C         93.5840   56.4500  -14.8180 C.2    14  GLY14       0.2639
     14  O         94.3590   55.4790  -14.7610 O.2    14  GLY14      -0.2714
     15  N         92.3640   56.3200  -15.3170 N.am   15  LYS15      -0.1963
     16  CA        91.8810   55.0250  -15.7990 C.3    15  LYS15       0.1728
     17  C         92.7960   54.4780  -16.8880 C.2    15  LYS15       0.2617
     18  O         93.4210   53.4300  -16.7410 O.2    15  LYS15      -0.2715
     19  CB        90.4580   55.1600  -16.3380 C.3    15  LYS15       0.0311
     20  CG        89.4450   55.5220  -15.2490 C.3    15  LYS15       0.0038
     21  CD        88.2380   56.1720  -15.9480 C.3    15  LYS15       0.0206
     22  CE        88.6880   57.5310  -16.4860 C.3    15  LYS15       0.1093
     23  NZ        88.8340   58.4860  -15.3500 N.3    15  LYS15      -0.1314
     24  N         92.8380   55.2550  -17.9540 N.am   16  SER16      -0.1936
     25  CA        93.6630   54.9770  -19.1090 C.3    16  SER16       0.2055
     26  C         95.0560   54.4570  -18.7660 C.2    16  SER16       0.2643
     27  O         95.4790   53.4710  -19.3710 O.2    16  SER16      -0.2714
     28  CB        93.8460   56.2450  -19.9690 C.3    16  SER16       0.2130
     29  OG        94.5470   55.8470  -21.1390 O.3    16  SER16      -0.2179
     30  N         95.7420   55.0950  -17.8300 N.am   17  THR17      -0.1950
     31  CA        97.0930   54.6950  -17.4370 C.3    17  THR17       0.1897
     32  C         97.0790   53.3920  -16.6640 C.2    17  THR17       0.2313
     33  O         97.9380   52.5190  -16.7720 O.2    17  THR17      -0.2863
     34  CB        97.7540   55.7950  -16.5730 C.3    17  THR17       0.1794
     35  OG1       97.6930   57.0510  -17.2650 O.3    17  THR17      -0.2208
     36  CG2       99.2270   55.5090  -16.3280 C.3    17  THR17       0.0378
     37  N         87.1130   50.4470  -19.5550 N.3    87  GLU87      -0.1245
     38  CA        87.1800   51.8120  -19.0210 C.3    87  GLU87       0.1567
     39  C         85.7580   52.3860  -18.9030 C.2    87  GLU87       0.2260
     40  O         85.1870   52.6970  -19.9560 O.2    87  GLU87      -0.2867
     41  CB        87.9990   52.7280  -19.9190 C.3    87  GLU87       0.0388
     42  CG        88.0120   54.2040  -19.5870 C.3    87  GLU87       0.1160
     43  CD        88.8820   55.0270  -20.5330 C.2    87  GLU87       0.3649
     44  OE1       89.0270   56.2440  -20.2670 O.co2  87  GLU87      -0.2457
     45  OE2       89.4280   54.5190  -21.5400 O.co2  87  GLU87      -0.2457
     46  N         96.2740   66.4470  -13.2700 N.3   146  ARG146     -0.1245
     47  CA        96.4890   65.4560  -14.3340 C.3   146  ARG146      0.1563
     48  C         95.9310   65.9570  -15.6530 C.2   146  ARG146      0.2260
     49  O         96.4220   65.5810  -16.7180 O.2   146  ARG146     -0.2867
     50  CB        95.8930   64.1020  -13.9420 C.3   146  ARG146      0.0307
     51  CG        96.8700   63.2450  -13.1650 C.3   146  ARG146      0.0489
     52  CD        96.2060   62.2740  -12.2070 C.3   146  ARG146      0.2205
     53  NE        97.1910   61.7320  -11.2840 N.pl3 146  ARG146     -0.0865
     54  CZ        97.1290   60.7130  -10.4550 C.cat 146  ARG146      0.5346
     55  NH1       96.0550   59.9490  -10.3230 N.pl3 146  ARG146      0.1354
     56  NH2       98.2020   60.4490   -9.7190 N.pl3 146  ARG146      0.1354
     57  N         98.7040   68.1620  -17.1780 N.3   149  LEU149     -0.1231
     58  CA        99.5730   67.0400  -17.4570 C.3   149  LEU149      0.1693
     59  C         99.2870   66.4710  -18.8390 C.2   149  LEU149      0.2591
     60  O        100.1400   66.5490  -19.7250 O.2   149  LEU149     -0.2718
     61  CB        99.3690   65.9610  -16.3960 C.3   149  LEU149      0.0284
     62  CG       100.2890   65.9500  -15.1820 C.3   149  LEU149      0.0019
     63  CD1      101.0500   64.6270  -15.1130 C.3   149  LEU149      0.0001
     64  CD2      101.2590   67.1280  -15.1940 C.3   149  LEU149      0.0001
     65  N         98.0800   65.9140  -19.0090 N.am  150  ARG150     -0.1980
     66  CA        97.6780   65.3790  -20.3070 C.3   150  ARG150      0.1597
     67  C         97.6170   66.5050  -21.3320 C.2   150  ARG150      0.2287
     68  O         97.8580   66.2840  -22.5140 O.2   150  ARG150     -0.2864
     69  CB        96.3200   64.6740  -20.2580 C.3   150  ARG150      0.0334
     70  CG        96.1330   63.6260  -21.3520 C.3   150  ARG150      0.0492
     71  CD        95.0420   62.6510  -20.9170 C.3   150  ARG150      0.2205
     72  NE        93.8700   63.3650  -20.4010 N.pl3 150  ARG150     -0.0865
     73  CZ        92.7900   62.7640  -19.9010 C.cat 150  ARG150      0.5346
     74  NH1       92.7660   61.4350  -19.8530 N.pl3 150  ARG150      0.1354
     75  NH2       91.7650   63.4850  -19.4580 N.pl3 150  ARG150      0.1354
     76  N         95.3050   68.0370  -22.8250 N.3   152  ARG152     -0.1245
     77  CA        94.3350   68.2850  -23.8930 C.3   152  ARG152      0.1563
     78  C         93.8280   69.7190  -23.6690 C.2   152  ARG152      0.2260
     79  O         93.1130   70.0320  -22.7180 O.2   152  ARG152     -0.2867
     80  CB        93.2210   67.2610  -23.9240 C.3   152  ARG152      0.0307
     81  CG        93.6650   65.8100  -23.9680 C.3   152  ARG152      0.0489
     82  CD        92.4770   64.8570  -24.0330 C.3   152  ARG152      0.2205
     83  NE        92.8790   63.4580  -23.9450 N.pl3 152  ARG152     -0.0865
     84  CZ        92.2820   62.5310  -23.2060 C.cat 152  ARG152      0.5346
     85  NH1       91.2240   62.8160  -22.4570 N.pl3 152  ARG152      0.1354
     86  NH2       92.7500   61.2840  -23.2110 N.pl3 152  ARG152      0.1354
     87  N        101.3090   59.2130   -7.3970 N.3   199  ASP199     -0.1225
     88  CA       101.7060   58.7530   -8.7240 C.3   199  ASP199      0.1805
     89  C        101.9800   57.2570   -8.7120 C.2   199  ASP199      0.2598
     90  O        102.7150   56.8190   -7.8270 O.2   199  ASP199     -0.2718
     91  CB       102.9360   59.5460   -9.1390 C.3   199  ASP199      0.1424
     92  CG       102.8390   60.1320  -10.5250 C.2   199  ASP199      0.3668
     93  OD1      102.2970   61.2520  -10.6570 O.co2 199  ASP199     -0.2456
     94  OD2      103.3060   59.4740  -11.4800 O.co2 199  ASP199     -0.2456
     95  N        101.4050   56.4410   -9.5950 N.am  200  PHE200     -0.1962
     96  CA       101.5840   54.9860   -9.5100 C.3   200  PHE200      0.1771
     97  C        102.3380   54.4590  -10.7310 C.2   200  PHE200      0.2619
     98  O        102.5840   53.2580  -10.8660 O.2   200  PHE200     -0.2715
     99  CB       100.2570   54.2300   -9.3250 C.3   200  PHE200      0.0574
    100  CG        99.1870   54.5180  -10.3710 C.ar  200  PHE200     -0.0200
    101  CD1       99.2190   53.9440  -11.6350 C.ar  200  PHE200     -0.0042
    102  CD2       98.1500   55.3820  -10.0780 C.ar  200  PHE200     -0.0042
    103  CE1       98.2760   54.2180  -12.6040 C.ar  200  PHE200     -0.0003
    104  CE2       97.1880   55.6640  -11.0300 C.ar  200  PHE200     -0.0003
    105  CZ        97.2510   55.0950  -12.2860 C.ar  200  PHE200     -0.0000
    106  N        102.7040   55.3650  -11.6320 N.am  201  LYS201     -0.1977
    107  CA       103.3110   54.9880  -12.9060 C.3   201  LYS201      0.1596
    108  C        104.5420   54.1120  -12.7390 C.2   201  LYS201      0.2287
    109  O        104.8120   53.2010  -13.5270 O.2   201  LYS201     -0.2864
    110  CB       103.6140   56.2740  -13.6850 C.3   201  LYS201      0.0298
    111  CG       102.3810   57.1600  -13.8540 C.3   201  LYS201      0.0038
    112  CD       102.5490   58.0780  -15.0550 C.3   201  LYS201      0.0206
    113  CE       101.4130   57.9610  -16.0450 C.3   201  LYS201      0.1093
    114  NZ       101.8700   57.9350  -17.4610 N.3   201  LYS201     -0.1314
@<TRIPOS>BOND
     1    82    81    1
     2    82    83    1
     3    81    80    1
     4    83    84    2
     5    80    77    1
     6    77    78    1
     7    77    76    1
     8    78    79    2
     9    86    84    1
    10    84    85    1
    11    68    67    2
    12    45    43   ar
    13    70    71    1
    14    70    69    1
    15    67    66    1
    16    29    28    1
    17    71    72    1
    18    43    44   ar
    19    43    42    1
    20    72    73    2
    21    66    69    1
    22    66    65    1
    23    28    25    1
    24    40    39    2
    25    41    42    1
    26    41    38    1
    27    73    74    1
    28    73    75    1
    29    60    59    2
    30    37    38    1
    31    27    26    2
    32    25    26    1
    33    25    24    1
    34    38    39    1
    35    65    59   am
    36    59    58    1
    37    26    30   am
    38    24    17   am
    39    30    31    1
    40   114   113    1
    41    58    57    1
    42    58    61    1
    43    31    32    1
    44    31    34    1
    45    35    34    1
    46    17    18    2
    47    17    16    1
    48    33    32    2
    49    49    48    2
    50    34    36    1
    51    22    21    1
    52    22    23    1
    53    61    62    1
    54    19    16    1
    55    19    20    1
    56   113   112    1
    57    21    20    1
    58     1     2    1
    59    16    15    1
    60     5     2    1
    61    48    47    1
    62     2     3    1
    63    15    13   am
    64    64    62    1
    65    62    63    1
    66   112   111    1
    67    13    14    2
    68    13    12    1
    69    47    50    1
    70    47    46    1
    71    12    11    1
    72     3     4    2
    73     3     6   am
    74    50    51    1
    75   111   110    1
    76    11     8   am
    77   110   107    1
    78     6     7    1
    79   109   108    2
    80    51    52    1
    81   107   108    1
    82   107   106    1
    83     8     7    1
    84     8     9    2
    85   103   105   ar
    86   103   101   ar
    87     7    10    1
    88   105   104   ar
    89    52    53    1
    90   101   100   ar
    91   106    97   am
    92    94    92   ar
    93    53    54    2
    94   104   102   ar
    95    98    97    2
    96    97    96    1
    97    93    92   ar
    98    92    91    1
    99    54    55    1
   100    54    56    1
   101   100   102   ar
   102   100    99    1
   103    95    96    1
   104    95    89   am
   105    96    99    1
   106    91    88    1
   107    88    89    1
   108    88    87    1
   109    89    90    2
