@<TRIPOS>MOLECULE
tmp/2zi7B00.pdb
 192 180 0 0 0
SMALL
GASTEIGER

@<TRIPOS>ATOM
      1  N          3.1170   -3.8030  -11.0480 N.3    10  ILE10      -0.1245
      2  CA         1.7280   -3.3550  -10.9740 C.3    10  ILE10       0.1561
      3  C          1.2540   -3.0750  -12.3770 C.2    10  ILE10       0.2260
      4  O          1.8140   -2.2410  -13.0730 O.2    10  ILE10      -0.2867
      5  CB         1.5500   -2.0530  -10.1030 C.3    10  ILE10       0.0252
      6  CG1        2.0410   -2.3280   -8.6610 C.3    10  ILE10       0.0019
      7  CG2        0.0370   -1.5260  -10.1220 C.3    10  ILE10       0.0019
      8  CD1        2.3440   -1.0610   -7.7870 C.3    10  ILE10       0.0001
      9  N         -0.8570   -9.5450  -15.1920 N.3    14  LYS14      -0.1245
     10  CA        -1.0460  -10.8420  -14.4790 C.3    14  LYS14       0.1561
     11  C         -2.5080  -11.3360  -14.4020 C.2    14  LYS14       0.2260
     12  O         -2.7910  -12.5040  -14.7060 O.2    14  LYS14      -0.2867
     13  CB        -0.4410  -10.7880  -13.0740 C.3    14  LYS14       0.0271
     14  CG         1.0330  -10.3350  -13.0570 C.3    14  LYS14       0.0035
     15  CD         1.5360  -10.2270  -11.6540 C.3    14  LYS14       0.0206
     16  CE         1.8940   -8.7960  -11.3020 C.3    14  LYS14       0.1093
     17  NZ         0.7660   -7.8410  -11.2340 N.3    14  LYS14      -0.1314
     18  N         -4.8570  -12.7250   -6.9380 N.3    33  GLU33      -0.1245
     19  CA        -4.6290  -11.8540   -5.8200 C.3    33  GLU33       0.1567
     20  C         -5.9620  -11.4440   -5.2070 C.2    33  GLU33       0.2260
     21  O         -6.8940  -11.0890   -5.9400 O.2    33  GLU33      -0.2867
     22  CB        -3.8750  -10.6120   -6.2900 C.3    33  GLU33       0.0388
     23  CG        -2.4760  -10.5770   -5.8510 C.3    33  GLU33       0.1160
     24  CD        -1.8130   -9.2600   -6.2080 C.2    33  GLU33       0.3649
     25  OE1       -0.7430   -9.0280   -5.6740 O.co2  33  GLU33      -0.2457
     26  OE2       -2.3420   -8.5040   -7.0340 O.co2  33  GLU33      -0.2457
     27  N         -7.4710   -8.8050   -4.3070 N.3    35  VAL35      -0.1245
     28  CA        -7.5830   -7.3360   -4.2800 C.3    35  VAL35       0.1561
     29  C         -9.0150   -6.8580   -3.9480 C.2    35  VAL35       0.2260
     30  O         -9.2130   -5.7510   -3.4340 O.2    35  VAL35      -0.2867
     31  CB        -6.9510   -6.6890   -5.5750 C.3    35  VAL35       0.0252
     32  CG1       -7.3840   -7.4400   -6.7960 C.3    35  VAL35       0.0019
     33  CG2       -7.2330   -5.1410   -5.6720 C.3    35  VAL35       0.0019
     34  N         -8.8780   -6.7590   -0.1490 N.3    38  TRP38      -0.1241
     35  CA        -8.0680   -5.6380    0.3090 C.3    38  TRP38       0.1605
     36  C         -8.7850   -4.3300    0.0900 C.2    38  TRP38       0.2264
     37  O         -8.4720   -3.3130    0.7380 O.2    38  TRP38      -0.2867
     38  CB        -6.7830   -5.5520   -0.4940 C.3    38  TRP38       0.0550
     39  CG        -5.9600   -6.7320   -0.4680 C.ar   38  TRP38       0.0003
     40  CD1       -6.0220   -7.7580    0.4180 C.ar   38  TRP38       0.0946
     41  CD2       -4.8770   -7.0090   -1.3500 C.ar   38  TRP38       0.0152
     42  NE1       -5.0380   -8.6860    0.1330 N.ar   38  TRP38      -0.2442
     43  CE2       -4.3300   -8.2500   -0.9610 C.ar   38  TRP38       0.0810
     44  CE3       -4.3160   -6.3220   -2.4390 C.ar   38  TRP38       0.0012
     45  CZ2       -3.2280   -8.8150   -1.6050 C.ar   38  TRP38       0.0191
     46  CZ3       -3.2390   -6.8890   -3.0900 C.ar   38  TRP38       0.0001
     47  CH2       -2.7050   -8.1330   -2.6790 C.ar   38  TRP38       0.0015
     48  N         -6.2100   -0.9850    0.8560 N.3    49  LEU49      -0.1245
     49  CA        -5.3840   -0.7450   -0.3170 C.3    49  LEU49       0.1561
     50  C         -5.2680    0.7670   -0.5030 C.2    49  LEU49       0.2260
     51  O         -4.1850    1.3470   -0.6750 O.2    49  LEU49      -0.2867
     52  CB        -6.0400   -1.4010   -1.5240 C.3    49  LEU49       0.0270
     53  CG        -5.3280   -1.2810   -2.8710 C.3    49  LEU49       0.0019
     54  CD1       -3.9340   -1.9320   -2.8060 C.3    49  LEU49       0.0001
     55  CD2       -6.1870   -1.8250   -4.0390 C.3    49  LEU49       0.0001
     56  N         -3.2690    2.4820    2.3780 N.3    52  MET52      -0.1230
     57  CA        -1.8650    2.2970    2.0840 C.3    52  MET52       0.1702
     58  C         -1.3040    3.2360    1.0370 C.2    52  MET52       0.2592
     59  O         -0.1470    3.5930    1.1400 O.2    52  MET52      -0.2718
     60  CB        -1.5950    0.8250    1.7060 C.3    52  MET52       0.0401
     61  CG        -0.1060    0.4020    1.5470 C.3    52  MET52       0.0596
     62  SD         0.3970    0.4690   -0.1860 S.3    52  MET52      -0.1393
     63  CE        -0.9460   -0.3410   -1.0650 C.3    52  MET52       0.0692
     64  N         -2.0820    3.6280    0.0290 N.am   53  TYR53      -0.1976
     65  CA        -1.6020    4.5550   -0.9690 C.3    53  TYR53       0.1639
     66  C         -1.7670    6.0290   -0.5260 C.2    53  TYR53       0.2290
     67  O         -0.9820    6.8960   -0.9010 O.2    53  TYR53      -0.2864
     68  CB        -2.2890    4.3090   -2.3400 C.3    53  TYR53       0.0560
     69  CG        -1.7230    3.1530   -3.1400 C.ar   53  TYR53      -0.0198
     70  CD1       -2.5430    2.0840   -3.5340 C.ar   53  TYR53      -0.0009
     71  CD2       -0.3620    3.0990   -3.5010 C.ar   53  TYR53      -0.0009
     72  CE1       -2.0330    1.0060   -4.3150 C.ar   53  TYR53       0.0417
     73  CE2        0.1520    1.9840   -4.2670 C.ar   53  TYR53       0.0417
     74  CZ        -0.6960    0.9490   -4.6540 C.ar   53  TYR53       0.1957
     75  OH        -0.2140   -0.1580   -5.3990 O.3    53  TYR53      -0.2866
     76  N         -1.2800   -3.0920    5.8180 N.3    63  PHE63      -0.1227
     77  CA        -1.5950   -3.6600    4.5080 C.3    63  PHE63       0.1736
     78  C         -0.7650   -4.8950    4.2480 C.2    63  PHE63       0.2595
     79  O         -1.3110   -5.9270    3.8480 O.2    63  PHE63      -0.2718
     80  CB        -1.4290   -2.6590    3.3410 C.3    63  PHE63       0.0547
     81  CG        -1.6820   -3.2880    1.9730 C.ar   63  PHE63      -0.0202
     82  CD1       -2.9330   -3.2590    1.3970 C.ar   63  PHE63      -0.0042
     83  CD2       -0.6800   -3.9320    1.2880 C.ar   63  PHE63      -0.0042
     84  CE1       -3.1870   -3.8910    0.1680 C.ar   63  PHE63      -0.0003
     85  CE2       -0.9130   -4.5460    0.0810 C.ar   63  PHE63      -0.0003
     86  CZ        -2.1640   -4.5300   -0.4830 C.ar   63  PHE63      -0.0000
     87  N          0.5400   -4.8020    4.5120 N.am   64  GLN64      -0.1979
     88  CA         1.4960   -5.8620    4.1200 C.3    64  GLN64       0.1601
     89  C          1.1960   -7.1560    4.8230 C.2    64  GLN64       0.2287
     90  O          1.3030   -8.2550    4.2290 O.2    64  GLN64      -0.2864
     91  CB         2.9120   -5.4190    4.4850 C.3    64  GLN64       0.0394
     92  CG         4.0270   -5.7330    3.5350 C.3    64  GLN64       0.0908
     93  CD         3.6920   -5.5100    2.0620 C.2    64  GLN64       0.2608
     94  OE1        3.6350   -4.3810    1.5360 O.2    64  GLN64      -0.2717
     95  NE2        3.4890   -6.5780    1.3960 N.am   64  GLN64      -0.0878
     96  N         -2.1530   -8.4260    3.4470 N.3    67  ALA67      -0.1245
     97  CA        -1.9650   -8.9290    2.0920 C.3    67  ALA67       0.1562
     98  C         -1.3110  -10.3140    2.1410 C.2    67  ALA67       0.2260
     99  O         -1.7560  -11.2390    1.4810 O.2    67  ALA67      -0.2867
    100  CB        -1.0980   -8.0030    1.3250 C.3    67  ALA67       0.0290
    101  N         -3.0790  -13.8480    0.9600 N.3    71  ARG71      -0.1245
    102  CA        -2.4040  -14.6350   -0.0420 C.3    71  ARG71       0.1563
    103  C         -2.2240  -16.1060    0.3540 C.2    71  ARG71       0.2260
    104  O         -2.5610  -16.9590   -0.4220 O.2    71  ARG71      -0.2867
    105  CB        -1.0180  -14.0530   -0.3050 C.3    71  ARG71       0.0307
    106  CG        -0.9220  -13.2700   -1.4950 C.3    71  ARG71       0.0489
    107  CD         0.5240  -13.1140   -1.8070 C.3    71  ARG71       0.2205
    108  NE         0.9280  -11.7300   -1.6230 N.pl3  71  ARG71      -0.0865
    109  CZ         0.5730  -10.7390   -2.4290 C.cat  71  ARG71       0.5346
    110  NH1       -0.2000  -10.9800   -3.4790 N.pl3  71  ARG71       0.1354
    111  NH2        1.0020   -9.5030   -2.1850 N.pl3  71  ARG71       0.1354
    112  N          1.2600  -13.9480   -7.9470 N.3    95  ARG95      -0.1245
    113  CA         2.2400  -13.5200   -6.9440 C.3    95  ARG95       0.1563
    114  C          2.3460  -14.5020   -5.8080 C.2    95  ARG95       0.2260
    115  O          1.7110  -15.5450   -5.8260 O.2    95  ARG95      -0.2867
    116  CB         1.9760  -12.0860   -6.4300 C.3    95  ARG95       0.0307
    117  CG         2.2040  -11.0340   -7.4450 C.3    95  ARG95       0.0489
    118  CD         2.4130   -9.6750   -6.7720 C.3    95  ARG95       0.2205
    119  NE         2.7500   -8.6320   -7.7150 N.pl3  95  ARG95      -0.0865
    120  CZ         1.9560   -7.5890   -8.0000 C.cat  95  ARG95       0.5346
    121  NH1        0.7610   -7.4830   -7.4220 N.pl3  95  ARG95       0.1354
    122  NH2        2.3560   -6.6610   -8.8590 N.pl3  95  ARG95       0.1354
    123  N          5.6820  -10.4750   -1.9360 N.3   100  ASP100     -0.1239
    124  CA         5.1650   -9.7240   -0.7720 C.3   100  ASP100      0.1674
    125  C          6.3390   -9.1520    0.0300 C.2   100  ASP100      0.2266
    126  O          6.4240   -7.9290    0.2730 O.2   100  ASP100     -0.2867
    127  CB         4.2740  -10.6370    0.1330 C.3   100  ASP100      0.1410
    128  CG         3.1990   -9.8500    0.9300 C.2   100  ASP100      0.3668
    129  OD1        3.5130   -8.8460    1.6390 O.co2 100  ASP100     -0.2456
    130  OD2        2.0130  -10.2220    0.8280 O.co2 100  ASP100     -0.2456
    131  N          7.7710   -6.0350   -2.3640 N.3   104  PHE104     -0.1241
    132  CA         6.9040   -4.9780   -1.8810 C.3   104  PHE104      0.1605
    133  C          7.2520   -4.4870   -0.4640 C.2   104  PHE104      0.2264
    134  O          7.5120   -3.2730   -0.2490 O.2   104  PHE104     -0.2867
    135  CB         5.4350   -5.4000   -1.9840 C.3   104  PHE104      0.0534
    136  CG         4.8650   -5.3300   -3.4130 C.ar  104  PHE104     -0.0203
    137  CD1        4.8730   -6.4400   -4.2410 C.ar  104  PHE104     -0.0042
    138  CD2        4.3400   -4.1530   -3.9040 C.ar  104  PHE104     -0.0042
    139  CE1        4.3470   -6.3800   -5.5420 C.ar  104  PHE104     -0.0003
    140  CE2        3.8180   -4.0920   -5.1990 C.ar  104  PHE104     -0.0003
    141  CZ         3.8160   -5.2160   -6.0140 C.ar  104  PHE104     -0.0000
    142  N          8.9490   -0.8800    0.6420 N.3   108  LEU108     -0.1245
    143  CA         8.3260    0.0670    1.5850 C.3   108  LEU108      0.1561
    144  C          9.2720    0.4090    2.7530 C.2   108  LEU108      0.2260
    145  O          9.4240    1.5760    3.0930 O.2   108  LEU108     -0.2867
    146  CB         6.9380   -0.4300    2.0600 C.3   108  LEU108      0.0270
    147  CG         5.7690   -0.5140    1.0500 C.3   108  LEU108      0.0019
    148  CD1        4.7230   -1.5660    1.4480 C.3   108  LEU108      0.0001
    149  CD2        5.1040    0.8290    0.7880 C.3   108  LEU108      0.0001
    150  N         -6.4500    1.1410  -16.5110 N.3   159  ARG159     -0.1245
    151  CA        -7.3410    0.4160  -15.6280 C.3   159  ARG159      0.1563
    152  C         -8.1070    1.3780  -14.7410 C.2   159  ARG159      0.2260
    153  O         -9.2780    1.1720  -14.4580 O.2   159  ARG159     -0.2867
    154  CB        -6.5570   -0.6260  -14.8450 C.3   159  ARG159      0.0307
    155  CG        -7.3540   -1.3070  -13.7950 C.3   159  ARG159      0.0489
    156  CD        -6.4970   -2.4050  -13.1470 C.3   159  ARG159      0.2205
    157  NE        -5.2860   -1.8720  -12.4790 N.pl3 159  ARG159     -0.0865
    158  CZ        -4.2640   -2.6620  -12.1500 C.cat 159  ARG159      0.5346
    159  NH1       -4.3310   -3.9570  -12.4250 N.pl3 159  ARG159      0.1354
    160  NH2       -3.2090   -2.2080  -11.5200 N.pl3 159  ARG159      0.1354
    161  N         -8.0390    2.4230  -11.5760 N.3   161  ARG161     -0.1245
    162  CA        -8.3950    2.2160  -10.1430 C.3   161  ARG161      0.1563
    163  C         -8.1120    3.5050   -9.4170 C.2   161  ARG161      0.2260
    164  O         -7.0130    4.0280   -9.5350 O.2   161  ARG161     -0.2867
    165  CB        -7.5620    1.1280   -9.4930 C.3   161  ARG161      0.0307
    166  CG        -7.8910   -0.2710   -9.9500 C.3   161  ARG161      0.0489
    167  CD        -7.0940   -1.2820   -9.1140 C.3   161  ARG161      0.2205
    168  NE        -7.4040   -2.6410   -9.5280 N.pl3 161  ARG161     -0.0865
    169  CZ        -6.5350   -3.6430   -9.5070 C.cat 161  ARG161      0.5346
    170  NH1       -5.2960   -3.4410   -9.0900 N.pl3 161  ARG161      0.1354
    171  NH2       -6.8970   -4.8600   -9.9190 N.pl3 161  ARG161      0.1354
    172  N         -4.9810    3.9660   -7.1690 N.3   164  GLU164     -0.1245
    173  CA        -3.6820    3.8740   -7.8310 C.3   164  GLU164      0.1567
    174  C         -3.2670    5.1220   -8.5510 C.2   164  GLU164      0.2260
    175  O         -2.1370    5.2120   -9.0220 O.2   164  GLU164     -0.2867
    176  CB        -3.6920    2.7210   -8.8140 C.3   164  GLU164      0.0388
    177  CG        -3.6330    1.4470   -8.0590 C.3   164  GLU164      0.1160
    178  CD        -3.7800    0.2570   -8.8670 C.2   164  GLU164      0.3649
    179  OE1       -4.0700    0.3640  -10.0760 O.co2 164  GLU164     -0.2457
    180  OE2       -3.6030   -0.8230   -8.2810 O.co2 164  GLU164     -0.2457
    181  N          8.0920    5.0030   -8.2310 N.3   171  TYR171     -0.1241
    182  CA         7.7030    3.8980   -7.3940 C.3   171  TYR171      0.1605
    183  C          7.7630    2.6180   -8.2180 C.2   171  TYR171      0.2264
    184  O          8.3280    1.6500   -7.7340 O.2   171  TYR171     -0.2867
    185  CB         6.2890    4.1150   -6.8140 C.3   171  TYR171      0.0534
    186  CG         5.7600    3.0010   -5.9100 C.ar  171  TYR171     -0.0201
    187  CD1        6.3770    2.7160   -4.6680 C.ar  171  TYR171     -0.0009
    188  CD2        4.6120    2.2850   -6.2550 C.ar  171  TYR171     -0.0009
    189  CE1        5.8760    1.6930   -3.8090 C.ar  171  TYR171      0.0417
    190  CE2        4.1150    1.2680   -5.4220 C.ar  171  TYR171      0.0417
    191  CZ         4.7360    0.9810   -4.2000 C.ar  171  TYR171      0.1957
    192  OH         4.2210   -0.0220   -3.3800 O.3   171  TYR171     -0.2866
@<TRIPOS>BOND
     1   150   151    1
     2   151   154    1
     3   151   152    1
     4     9    10    1
     5   154   155    1
     6   152   153    2
     7    12    11    2
     8    10    11    1
     9    10    13    1
    10   155   156    1
    11   156   157    1
    12    13    14    1
    13     4     3    2
    14    14    15    1
    15   157   158    2
    16   159   158    1
    17     3     2    1
    18   158   160    1
    19    15    16    1
    20   161   162    1
    21    16    17    1
    22     1     2    1
    23     2     5    1
    24   162   165    1
    25   162   163    1
    26     7     5    1
    27     5     6    1
    28   179   178   ar
    29   166   165    1
    30   166   167    1
    31   171   169    1
    32   164   163    2
    33   168   169    2
    34   168   167    1
    35   169   170    1
    36   175   174    2
    37   178   180   ar
    38   178   177    1
    39   122   120    1
    40   176   177    1
    41   176   173    1
    42     6     8    1
    43   174   173    1
    44   181   182    1
    45   183   184    2
    46   183   182    1
    47   120   119    2
    48   120   121    1
    49   112   113    1
    50   173   172    1
    51   119   118    1
    52   117   118    1
    53   117   116    1
    54   182   185    1
    55    26    24   ar
    56   113   116    1
    57   113   114    1
    58    18    19    1
    59   185   186    1
    60    32    31    1
    61    22    23    1
    62    22    19    1
    63   188   186   ar
    64   188   190   ar
    65    24    23    1
    66    24    25   ar
    67   141   139   ar
    68   141   140   ar
    69    21    20    2
    70   186   187   ar
    71   115   114    2
    72    19    20    1
    73    33    31    1
    74    31    28    1
    75   139   137   ar
    76   190   191   ar
    77    75    74    1
    78   140   138   ar
    79   187   189   ar
    80    74    72   ar
    81    74    73   ar
    82    72    70   ar
    83    27    28    1
    84    28    29    1
    85    73    71   ar
    86   137   136   ar
    87   191   189   ar
    88   191   192    1
    89    55    53    1
    90    29    30    2
    91   138   136   ar
    92    70    69   ar
    93    71    69   ar
    94   110   109    1
    95   136   135    1
    96    69    68    1
    97    46    47   ar
    98    46    44   ar
    99    53    54    1
   100    53    52    1
   101    47    45   ar
   102    44    41   ar
   103   109   111    1
   104   109   108    2
   105   131   132    1
   106    68    65    1
   107   135   132    1
   108   123   124    1
   109   132   133    1
   110   107   108    1
   111   107   106    1
   112    45    43   ar
   113    52    49    1
   114   106   105    1
   115    41    43   ar
   116    41    39   ar
   117    63    62    1
   118    65    66    1
   119    65    64    1
   120    43    42   ar
   121    67    66    2
   122   124   125    1
   123   124   127    1
   124    51    50    2
   125    50    49    1
   126    38    39    1
   127    38    35    1
   128    86    85   ar
   129    86    84   ar
   130    39    40   ar
   131   133   134    2
   132   104   103    2
   133    49    48    1
   134   105   102    1
   135    62    61    1
   136    34    35    1
   137   102   103    1
   138   102   101    1
   139    64    58   am
   140   125   126    2
   141    85    83   ar
   142    36    35    1
   143    36    37    2
   144   127   128    1
   145    42    40   ar
   146    84    82   ar
   147   142   143    1
   148   149   147    1
   149   130   128   ar
   150   128   129   ar
   151    58    59    2
   152    58    57    1
   153   147   148    1
   154   147   146    1
   155    83    81   ar
   156   100    97    1
   157    95    93   am
   158    82    81   ar
   159    99    98    2
   160    94    93    2
   161    61    60    1
   162   143   146    1
   163   143   144    1
   164    60    57    1
   165    81    80    1
   166    93    92    1
   167    57    56    1
   168    97    98    1
   169    97    96    1
   170   144   145    2
   171    80    77    1
   172    92    91    1
   173    79    78    2
   174    88    91    1
   175    88    87    1
   176    88    89    1
   177    90    89    2
   178    78    77    1
   179    78    87   am
   180    77    76    1
