@<TRIPOS>MOLECULE
tmp/2zi8A00.pdb
 179 168 0 0 0
SMALL
GASTEIGER

@<TRIPOS>ATOM
      1  N         81.4710   18.3220   12.8100 N.3   145  HIS145     -0.1241
      2  CA        81.1640   19.0820   11.5540 C.3   145  HIS145      0.1621
      3  C         82.1600   20.1750   11.2470 C.2   145  HIS145      0.2264
      4  O         82.9080   20.6150   12.1260 O.2   145  HIS145     -0.2867
      5  CB        79.7030   19.6520   11.4890 C.3   145  HIS145      0.0745
      6  CG        79.3630   20.6520   12.5490 C.ar  145  HIS145      0.0817
      7  ND1       78.4000   20.4160   13.5090 N.ar  145  HIS145     -0.2268
      8  CD2       79.8150   21.9130   12.7800 C.ar  145  HIS145      0.1154
      9  CE1       78.3220   21.4570   14.3220 C.ar  145  HIS145      0.1986
     10  NE2       79.1410   22.3900   13.8840 N.ar  145  HIS145     -0.2212
     11  N         82.2210   24.0300    9.1360 N.3   147  VAL147     -0.1245
     12  CA        81.6440   25.1720    8.4390 C.3   147  VAL147      0.1561
     13  C         82.6960   25.8660    7.5740 C.2   147  VAL147      0.2260
     14  O         83.6590   26.3740    8.0740 O.2   147  VAL147     -0.2867
     15  CB        80.9490   26.0930    9.4140 C.3   147  VAL147      0.0252
     16  CG1       80.2570   27.2670    8.6430 C.3   147  VAL147      0.0019
     17  CG2       79.9360   25.2330   10.2120 C.3   147  VAL147      0.0019
     18  N         69.8200   29.5260    7.2880 N.3   172  MET172     -0.1245
     19  CA        69.7030   30.7750    8.0300 C.3   172  MET172      0.1570
     20  C         70.0850   31.9170    7.1160 C.2   172  MET172      0.2261
     21  O         71.1410   31.8730    6.4940 O.2   172  MET172     -0.2867
     22  CB        70.5990   30.7680    9.2420 C.3   172  MET172      0.0387
     23  CG        70.3520   31.9660   10.1270 C.3   172  MET172      0.0595
     24  SD        71.2480   31.8790   11.6890 S.3   172  MET172     -0.1393
     25  CE        71.3450   30.0620   11.9260 C.3   172  MET172      0.0692
     26  N         71.3180   35.5480    5.7780 N.3   174  LEU174     -0.1245
     27  CA        72.2560   36.6140    6.1240 C.3   174  LEU174      0.1561
     28  C         71.9430   37.9180    5.3250 C.2   174  LEU174      0.2260
     29  O         71.7160   37.8680    4.0880 O.2   174  LEU174     -0.2867
     30  CB        73.7320   36.1240    6.0010 C.3   174  LEU174      0.0270
     31  CG        74.1280   34.8170    6.7750 C.3   174  LEU174      0.0019
     32  CD1       75.3310   34.1410    6.0870 C.3   174  LEU174      0.0001
     33  CD2       74.3140   34.8870    8.3550 C.3   174  LEU174      0.0001
     34  N         73.2260   30.8370    4.8880 N.3   190  LEU190     -0.1245
     35  CA        74.0540   29.8270    5.5750 C.3   190  LEU190      0.1561
     36  C         73.2330   28.5290    5.4930 C.2   190  LEU190      0.2260
     37  O         72.1150   28.4960    5.9700 O.2   190  LEU190     -0.2867
     38  CB        74.2130   30.2310    7.0360 C.3   190  LEU190      0.0270
     39  CG        75.3880   29.8270    7.9190 C.3   190  LEU190      0.0019
     40  CD1       74.8770   29.9820    9.3540 C.3   190  LEU190      0.0001
     41  CD2       76.0200   28.4550    7.6450 C.3   190  LEU190      0.0001
     42  N         73.0890   24.2650    6.1580 N.3   192  PHE192     -0.1241
     43  CA        73.6130   23.1990    6.9950 C.3   192  PHE192      0.1605
     44  C         73.2200   21.8980    6.2980 C.2   192  PHE192      0.2264
     45  O         72.0140   21.7290    5.9950 O.2   192  PHE192     -0.2867
     46  CB        73.0170   23.2830    8.4150 C.3   192  PHE192      0.0534
     47  CG        73.3160   24.5690    9.1400 C.ar  192  PHE192     -0.0203
     48  CD1       74.3660   24.6330   10.0290 C.ar  192  PHE192     -0.0042
     49  CD2       72.5530   25.7230    8.9060 C.ar  192  PHE192     -0.0042
     50  CE1       74.6430   25.8060   10.7430 C.ar  192  PHE192     -0.0003
     51  CE2       72.8160   26.9040    9.5570 C.ar  192  PHE192     -0.0003
     52  CZ        73.8800   26.9540   10.5030 C.ar  192  PHE192     -0.0000
     53  N         74.0600   18.2930   11.5010 N.3   200  HIS200     -0.1241
     54  CA        74.9070   18.6360   10.3450 C.3   200  HIS200      0.1621
     55  C         76.3390   18.1580   10.4580 C.2   200  HIS200      0.2264
     56  O         76.9360   18.2380   11.5000 O.2   200  HIS200     -0.2867
     57  CB        74.8290   20.1260    9.9030 C.3   200  HIS200      0.0745
     58  CG        75.1690   21.1050   10.9740 C.ar  200  HIS200      0.0817
     59  ND1       74.3140   21.3900   12.0330 N.ar  200  HIS200     -0.2268
     60  CD2       76.2580   21.9000   11.1380 C.ar  200  HIS200      0.1154
     61  CE1       74.8510   22.3430   12.7760 C.ar  200  HIS200      0.1986
     62  NE2       76.0380   22.6530   12.2750 N.ar  200  HIS200     -0.2212
     63  N         79.1610   29.0330    4.6430 N.3   205  LEU205     -0.1245
     64  CA        78.9450   30.4840    4.7750 C.3   205  LEU205      0.1561
     65  C         79.5490   31.1940    3.5050 C.2   205  LEU205      0.2260
     66  O         80.6290   30.8380    3.0730 O.2   205  LEU205     -0.2867
     67  CB        79.5960   30.9510    6.0980 C.3   205  LEU205      0.0270
     68  CG        79.3540   32.3790    6.5740 C.3   205  LEU205      0.0019
     69  CD1       78.1210   32.4780    7.3850 C.3   205  LEU205      0.0001
     70  CD2       80.5490   32.9190    7.4190 C.3   205  LEU205      0.0001
     71  N         81.0860   33.8760    3.0490 N.3   207  MET207     -0.1196
     72  CA        81.7810   34.9840    3.6130 C.3   207  MET207      0.1786
     73  C         83.2210   34.5610    3.7510 C.2   207  MET207      0.2306
     74  O         83.4960   33.4070    4.0660 O.2   207  MET207     -0.2863
     75  CB        81.1850   35.4170    4.9690 C.2   207  MET207      0.0070
     76  CG        79.8950   36.2880    4.8890 C.2   207  MET207      0.0282
     77  SD        79.4450   37.1480    6.4280 S.3   207  MET207     -0.1125
     78  CE        77.6800   37.3390    6.0900 C.3   207  MET207      0.0742
     79  N         85.4530   28.3550    8.7040 N.3   214  VAL214     -0.1231
     80  CA        84.6950   29.1810    9.6520 C.3   214  VAL214      0.1692
     81  C         84.7770   28.5190   11.0340 C.2   214  VAL214      0.2592
     82  O         85.1030   29.1950   12.0200 O.2   214  VAL214     -0.2718
     83  CB        83.2440   29.4790    9.1950 C.3   214  VAL214      0.0266
     84  CG1       82.5190   30.3320   10.2160 C.3   214  VAL214      0.0020
     85  CG2       83.1960   30.2040    7.7800 C.3   214  VAL214      0.0020
     86  N         84.5270   27.2110   11.1170 N.am  215  HIS215     -0.1976
     87  CA        84.7320   26.4490   12.3780 C.3   215  HIS215      0.1656
     88  C         84.7590   24.9560   12.2380 C.2   215  HIS215      0.2291
     89  O         84.2010   24.4210   11.2980 O.2   215  HIS215     -0.2864
     90  CB        83.8170   26.8940   13.5320 C.3   215  HIS215      0.0771
     91  CG        82.3910   26.4290   13.4760 C.ar  215  HIS215      0.0820
     92  ND1       81.3670   27.2410   13.0230 N.ar  215  HIS215     -0.2267
     93  CD2       81.7890   25.3090   13.9690 C.ar  215  HIS215      0.1154
     94  CE1       80.2110   26.6130   13.1580 C.ar  215  HIS215      0.1986
     95  NE2       80.4340   25.4500   13.7510 N.ar  215  HIS215     -0.2212
     96  N         72.4470   26.0420   20.7370 N.3   247  HIS247     -0.1241
     97  CA        72.0130   26.3560   19.4050 C.3   247  HIS247      0.1621
     98  C         70.5850   25.9820   19.2500 C.2   247  HIS247      0.2264
     99  O         70.0670   25.1100   19.8740 O.2   247  HIS247     -0.2867
    100  CB        72.7960   25.6050   18.3430 C.3   247  HIS247      0.0745
    101  CG        74.1030   26.2450   17.9870 C.ar  247  HIS247      0.0817
    102  ND1       75.2830   25.5340   17.9280 N.ar  247  HIS247     -0.2268
    103  CD2       74.4220   27.5280   17.6730 C.ar  247  HIS247      0.1154
    104  CE1       76.2740   26.3570   17.6230 C.ar  247  HIS247      0.1986
    105  NE2       75.7830   27.5720   17.4740 N.ar  247  HIS247     -0.2212
    106  N         69.3910   25.2240   16.0610 N.3   249  ASN249     -0.1225
    107  CA        69.1690   24.1760   15.0850 C.3   249  ASN249      0.1785
    108  C         69.5330   22.7090   15.5150 C.2   249  ASN249      0.2597
    109  O         68.7240   21.7930   15.2800 O.2   249  ASN249     -0.2718
    110  CB        69.6980   24.5820   13.6920 C.3   249  ASN249      0.1169
    111  CG        71.1770   24.7380   13.6700 C.2   249  ASN249      0.2627
    112  OD1       71.8340   24.6130   14.7100 O.2   249  ASN249     -0.2716
    113  ND2       71.7220   25.0150   12.5170 N.am  249  ASN249     -0.0877
    114  N         70.7070   22.5010   16.1600 N.am  250  ASP250     -0.1974
    115  CA        71.2210   21.1770   16.5310 C.3   250  ASP250      0.1709
    116  C         71.2320   20.8970   18.0370 C.2   250  ASP250      0.2293
    117  O         71.6210   19.7670   18.4910 O.2   250  ASP250     -0.2864
    118  CB        72.5770   20.8700   15.8660 C.3   250  ASP250      0.1436
    119  CG        73.6850   21.7420   16.3030 C.2   250  ASP250      0.3671
    120  OD1       73.5230   22.6610   17.1130 O.co2 250  ASP250     -0.2456
    121  OD2       74.8210   21.5210   15.8210 O.co2 250  ASP250     -0.2456
    122  N         82.7110   28.5930   21.7000 N.3   256  TYR256     -0.1241
    123  CA        83.6470   28.6940   20.5790 C.3   256  TYR256      0.1605
    124  C         84.9200   29.3480   21.0990 C.2   256  TYR256      0.2264
    125  O         84.8290   30.2320   21.9600 O.2   256  TYR256     -0.2867
    126  CB        83.0840   29.5160   19.4030 C.3   256  TYR256      0.0534
    127  CG        81.8810   28.9460   18.7110 C.ar  256  TYR256     -0.0201
    128  CD1       81.9370   28.6390   17.3450 C.ar  256  TYR256     -0.0009
    129  CD2       80.6310   28.7650   19.3850 C.ar  256  TYR256     -0.0009
    130  CE1       80.8150   28.1580   16.6730 C.ar  256  TYR256      0.0417
    131  CE2       79.4930   28.2630   18.6830 C.ar  256  TYR256      0.0417
    132  CZ        79.6250   27.9630   17.3450 C.ar  256  TYR256      0.1957
    133  OH        78.5720   27.4620   16.5880 O.3   256  TYR256     -0.2866
    134  N         87.8350   29.1760   14.4180 N.3   264  ASP264     -0.1239
    135  CA        87.2360   28.6810   15.6620 C.3   264  ASP264      0.1674
    136  C         87.1270   27.1540   15.6760 C.2   264  ASP264      0.2266
    137  O         87.1180   26.4790   14.6150 O.2   264  ASP264     -0.2867
    138  CB        85.8480   29.2780   15.9220 C.3   264  ASP264      0.1410
    139  CG        85.8890   30.7380   16.2760 C.2   264  ASP264      0.3668
    140  OD1       86.9270   31.2400   16.6840 O.co2 264  ASP264     -0.2456
    141  OD2       84.8660   31.4220   16.1380 O.co2 264  ASP264     -0.2456
    142  N         84.3930   24.8860   17.7410 N.3   266  GLU266     -0.1245
    143  CA        83.2590   24.7170   18.5970 C.3   266  GLU266      0.1567
    144  C         83.3670   23.3830   19.4000 C.2   266  GLU266      0.2260
    145  O         83.5040   22.3010   18.8580 O.2   266  GLU266     -0.2867
    146  CB        81.9920   24.7050   17.7060 C.3   266  GLU266      0.0388
    147  CG        80.7640   24.5660   18.6050 C.3   266  GLU266      0.1160
    148  CD        79.5000   24.3850   17.8420 C.2   266  GLU266      0.3649
    149  OE1       79.5630   24.2810   16.5890 O.co2 266  GLU266     -0.2457
    150  OE2       78.4300   24.3730   18.5000 O.co2 266  GLU266     -0.2457
    151  N         70.8110   32.1190   16.1220 N.3   287  VAL287     -0.1245
    152  CA        71.9400   31.1770   16.3180 C.3   287  VAL287      0.1561
    153  C         71.6930   30.3430   17.5770 C.2   287  VAL287      0.2260
    154  O         71.9270   29.1330   17.5730 O.2   287  VAL287     -0.2867
    155  CB        73.3000   31.9880   16.4460 C.3   287  VAL287      0.0252
    156  CG1       74.4930   31.1330   16.9040 C.3   287  VAL287      0.0019
    157  CG2       73.5940   32.6810   15.1050 C.3   287  VAL287      0.0019
    158  N         78.8730   35.9630   20.5900 N.3   294  PHE294     -0.1241
    159  CA        80.0430   36.1590   19.7090 C.3   294  PHE294      0.1605
    160  C         80.8110   37.5150   19.8560 C.2   294  PHE294      0.2264
    161  O         81.8880   37.7050   19.2900 O.2   294  PHE294     -0.2867
    162  CB        79.6780   35.8930   18.2700 C.3   294  PHE294      0.0534
    163  CG        79.5400   34.4110   17.9250 C.ar  294  PHE294     -0.0203
    164  CD1       80.6600   33.6560   17.5190 C.ar  294  PHE294     -0.0042
    165  CD2       78.2890   33.7760   17.9540 C.ar  294  PHE294     -0.0042
    166  CE1       80.5300   32.2960   17.1880 C.ar  294  PHE294     -0.0003
    167  CE2       78.1440   32.4020   17.6140 C.ar  294  PHE294     -0.0003
    168  CZ        79.2530   31.6660   17.2210 C.ar  294  PHE294     -0.0000
    169  N         84.5060   35.4350   15.1640 N.3   299  ARG299     -0.1245
    170  CA        85.2650   35.8480   13.9290 C.3   299  ARG299      0.1563
    171  C         86.8020   35.6450   13.9470 C.2   299  ARG299      0.2260
    172  O         87.5500   36.2330   13.1470 O.2   299  ARG299     -0.2867
    173  CB        84.8420   37.2790   13.3850 C.3   299  ARG299      0.0307
    174  CG        83.3230   37.3790   13.2060 C.3   299  ARG299      0.0489
    175  CD        82.8430   36.5280   12.0360 C.3   299  ARG299      0.2205
    176  NE        83.4060   37.0140   10.7840 N.pl3 299  ARG299     -0.0865
    177  CZ        83.4530   36.3860    9.5940 C.cat 299  ARG299      0.5346
    178  NH1       82.9830   35.1390    9.3920 N.pl3 299  ARG299      0.1354
    179  NH2       84.0060   37.0470    8.5550 N.pl3 299  ARG299      0.1354
@<TRIPOS>BOND
     1    71    72    1
     2    66    65    2
     3    65    64    1
     4    72    73    1
     5    72    75    1
     6    73    74    2
     7    29    28    2
     8    63    64    1
     9    64    67    1
    10    34    35    1
    11    76    75    2
    12    76    77    1
    13    28    27    1
    14    36    35    1
    15    36    37    2
    16    35    38    1
    17    26    27    1
    18    45    44    2
    19    30    27    1
    20    30    31    1
    21    32    31    1
    22    78    77    1
    23    67    68    1
    24    42    43    1
    25    44    43    1
    26    21    20    2
    27    68    69    1
    28    68    70    1
    29    31    33    1
    30    43    46    1
    31    38    39    1
    32    20    19    1
    33    18    19    1
    34    13    14    2
    35    13    12    1
    36    41    39    1
    37    85    83    1
    38    39    40    1
    39    19    22    1
    40    46    47    1
    41    12    11    1
    42    12    15    1
    43   179   177    1
    44    16    15    1
    45    79    80    1
    46    49    47   ar
    47    49    51   ar
    48    47    48   ar
    49    83    80    1
    50    83    84    1
    51    22    23    1
    52   178   177    1
    53    15    17    1
    54    51    52   ar
    55   177   176    2
    56    80    81    1
    57    57    54    1
    58    57    58    1
    59    48    50   ar
    60    23    24    1
    61    54    55    1
    62    54    53    1
    63    55    56    2
    64    52    50   ar
    65   176   175    1
    66    58    60   ar
    67    58    59   ar
    68    81    86   am
    69    81    82    2
    70    86    87    1
    71    60    62   ar
    72     3     2    1
    73     3     4    2
    74    89    88    2
    75     5     2    1
    76     5     6    1
    77     2     1    1
    78    24    25    1
    79    59    61   ar
    80   175   174    1
    81    88    87    1
    82    62    61   ar
    83    87    90    1
    84   113   111   am
    85     6     8   ar
    86     6     7   ar
    87     8    10   ar
    88    92    94   ar
    89    92    91   ar
    90   172   171    2
    91    94    95   ar
    92   174   173    1
    93   173   170    1
    94    91    90    1
    95    91    93   ar
    96     7     9   ar
    97   111   110    1
    98   111   112    2
    99   110   107    1
   100    95    93   ar
   101    10     9   ar
   102   170   171    1
   103   170   169    1
   104   134   135    1
   105   137   136    2
   106   107   108    1
   107   107   106    1
   108   157   155    1
   109   109   108    2
   110   108   114   am
   111   135   136    1
   112   135   138    1
   113   121   119   ar
   114   118   119    1
   115   118   115    1
   116   138   139    1
   117   151   152    1
   118   141   139   ar
   119   114   115    1
   120   139   140   ar
   121   119   120   ar
   122   152   155    1
   123   152   153    1
   124   155   156    1
   125   115   116    1
   126   133   132    1
   127   149   148   ar
   128   130   128   ar
   129   130   132   ar
   130   166   168   ar
   131   166   164   ar
   132   168   167   ar
   133   128   127   ar
   134   132   131   ar
   135   105   104   ar
   136   105   103   ar
   137   164   163   ar
   138   154   153    2
   139   167   165   ar
   140   104   102   ar
   141   103   101   ar
   142   146   143    1
   143   146   147    1
   144   142   143    1
   145   148   150   ar
   146   148   147    1
   147   163   165   ar
   148   163   162    1
   149   102   101   ar
   150   101   100    1
   151   116   117    2
   152   162   159    1
   153   100    97    1
   154   143   144    1
   155   131   129   ar
   156   127   129   ar
   157   127   126    1
   158   145   144    2
   159    98    97    1
   160    98    99    2
   161   161   160    2
   162   126   123    1
   163    97    96    1
   164   159   160    1
   165   159   158    1
   166   123   124    1
   167   123   122    1
   168   124   125    2
