@<TRIPOS>MOLECULE
tmp/2zicA00.pdb
 157 150 0 0 0
SMALL
GASTEIGER

@<TRIPOS>ATOM
      1  N         20.3500   10.5920    7.9050 N.3    60  ASP60      -0.1239
      2  CA        19.1560    9.8310    7.5540 C.3    60  ASP60       0.1674
      3  C         17.9640   10.6250    8.0840 C.2    60  ASP60       0.2266
      4  O         16.9960   10.0740    8.6110 O.2    60  ASP60      -0.2867
      5  CB        19.1980    8.4240    8.1610 C.3    60  ASP60       0.1410
      6  CG        18.1020    7.5080    7.6080 C.2    60  ASP60       0.3668
      7  OD1       17.5510    7.8020    6.5260 O.co2  60  ASP60      -0.2456
      8  OD2       17.8040    6.4820    8.2510 O.co2  60  ASP60      -0.2456
      9  N         16.8530    9.9350   11.7630 N.3    63  TYR63      -0.1241
     10  CA        16.9400    8.5680   12.2560 C.3    63  TYR63       0.1605
     11  C         18.3530    8.1950   12.7010 C.2    63  TYR63       0.2264
     12  O         18.6290    7.0450   13.0310 O.2    63  TYR63      -0.2867
     13  CB        16.3850    7.5970   11.2180 C.3    63  TYR63       0.0534
     14  CG        14.8690    7.6130   11.2110 C.ar   63  TYR63      -0.0201
     15  CD1       14.1430    6.9040   12.1690 C.ar   63  TYR63      -0.0009
     16  CD2       14.1630    8.3960   10.2970 C.ar   63  TYR63      -0.0009
     17  CE1       12.7520    6.9770   12.2220 C.ar   63  TYR63       0.0417
     18  CE2       12.7660    8.4760   10.3420 C.ar   63  TYR63       0.0417
     19  CZ        12.0720    7.7650   11.3060 C.ar   63  TYR63       0.1957
     20  OH        10.7020    7.8490   11.3660 O.3    63  TYR63      -0.2866
     21  N         14.0840    5.2460   18.2290 N.3   100  VAL100     -0.1245
     22  CA        15.1140    4.7070   17.3430 C.3   100  VAL100      0.1561
     23  C         16.2960    4.2220   18.1810 C.2   100  VAL100      0.2260
     24  O         17.3020    4.9240   18.3440 O.2   100  VAL100     -0.2867
     25  CB        15.5860    5.7960   16.3610 C.3   100  VAL100      0.0252
     26  CG1       16.3710    5.1810   15.2260 C.3   100  VAL100      0.0019
     27  CG2       14.3880    6.5550   15.8340 C.3   100  VAL100      0.0019
     28  N         20.1440    1.6820   16.7460 N.3   103  HIS103     -0.1241
     29  CA        21.3900    2.3540   16.3940 C.3   103  HIS103      0.1621
     30  C         21.3040    3.8390   16.7510 C.2   103  HIS103      0.2264
     31  O         20.2190    4.3660   16.9880 O.2   103  HIS103     -0.2867
     32  CB        21.6320    2.2260   14.8880 C.3   103  HIS103      0.0745
     33  CG        20.4470    2.6260   14.0610 C.ar  103  HIS103      0.0817
     34  ND1       19.4750    1.7300   13.6730 N.ar  103  HIS103     -0.2268
     35  CD2       20.0340    3.8410   13.6230 C.ar  103  HIS103      0.1154
     36  CE1       18.5120    2.3740   13.0370 C.ar  103  HIS103      0.1986
     37  NE2       18.8270    3.6580   12.9940 N.ar  103  HIS103     -0.2212
     38  N         21.4020    0.1980    3.1290 N.3   139  PHE139     -0.1241
     39  CA        21.6020    1.3510    2.2550 C.3   139  PHE139      0.1605
     40  C         22.7720    1.0980    1.2920 C.2   139  PHE139      0.2264
     41  O         23.3420    2.0310    0.7190 O.2   139  PHE139     -0.2867
     42  CB        21.8630    2.6320    3.0670 C.3   139  PHE139      0.0534
     43  CG        20.6710    3.1170    3.8610 C.ar  139  PHE139     -0.0203
     44  CD1       19.3730    2.8560    3.4350 C.ar  139  PHE139     -0.0042
     45  CD2       20.8520    3.8760    5.0160 C.ar  139  PHE139     -0.0042
     46  CE1       18.2720    3.3450    4.1430 C.ar  139  PHE139     -0.0003
     47  CE2       19.7520    4.3730    5.7350 C.ar  139  PHE139     -0.0003
     48  CZ        18.4640    4.1050    5.2950 C.ar  139  PHE139     -0.0000
     49  N         22.4750    0.2550    8.5910 N.3   158  PHE158     -0.1241
     50  CA        22.0000    1.4030    7.8440 C.3   158  PHE158      0.1605
     51  C         23.1950    2.2290    7.3990 C.2   158  PHE158      0.2264
     52  O         24.1800    1.6420    6.9530 O.2   158  PHE158     -0.2867
     53  CB        20.9680    2.1620    8.6830 C.3   158  PHE158      0.0534
     54  CG        19.7000    1.3720    8.8750 C.ar  158  PHE158     -0.0203
     55  CD1       18.7670    1.2810    7.8460 C.ar  158  PHE158     -0.0042
     56  CD2       19.5170    0.5850   10.0090 C.ar  158  PHE158     -0.0042
     57  CE1       17.6770    0.4090    7.9360 C.ar  158  PHE158     -0.0003
     58  CE2       18.4310   -0.2920   10.1130 C.ar  158  PHE158     -0.0003
     59  CZ        17.5110   -0.3820    9.0730 C.ar  158  PHE158     -0.0000
     60  N         25.3750    5.5800   11.2670 N.3   162  GLN162     -0.1245
     61  CA        24.3340    5.0070   12.1120 C.3   162  GLN162      0.1566
     62  C         24.8140    3.6890   12.7160 C.2   162  GLN162      0.2260
     63  O         24.2440    2.6310   12.4620 O.2   162  GLN162     -0.2867
     64  CB        23.0550    4.7720   11.3100 C.3   162  GLN162      0.0367
     65  CG        22.2100    6.0260   11.1120 C.3   162  GLN162      0.0905
     66  CD        21.1020    5.8160   10.1060 C.2   162  GLN162      0.2608
     67  OE1       21.3600    5.4850    8.9500 O.2   162  GLN162     -0.2717
     68  NE2       19.8600    6.0070   10.5360 N.am  162  GLN162     -0.0878
     69  N          6.7260    4.7030   18.6490 N.3   192  ARG192     -0.1245
     70  CA         6.7120    4.0640   17.3330 C.3   192  ARG192      0.1563
     71  C          8.1430    3.5320   17.3630 C.2   192  ARG192      0.2260
     72  O          9.0920    4.3200   17.4050 O.2   192  ARG192     -0.2867
     73  CB         6.5620    5.1060   16.2220 C.3   192  ARG192      0.0307
     74  CG         6.1000    4.5840   14.8550 C.3   192  ARG192      0.0489
     75  CD         7.1070    3.7170   14.0830 C.3   192  ARG192      0.2205
     76  NE         8.4340    4.3070   13.9100 N.pl3 192  ARG192     -0.0865
     77  CZ         9.2060    4.1410   12.8320 C.cat 192  ARG192      0.5346
     78  NH1        8.7880    3.4190   11.8030 N.pl3 192  ARG192      0.1354
     79  NH2       10.4330    4.6510   12.8020 N.pl3 192  ARG192      0.1354
     80  N         11.2690    2.0490   15.7650 N.3   194  ASP194     -0.1225
     81  CA        12.0660    1.8840   14.5480 C.3   194  ASP194      0.1805
     82  C         12.7550    0.5070   14.4630 C.2   194  ASP194      0.2597
     83  O         13.4680    0.1110   15.3860 O.2   194  ASP194     -0.2718
     84  CB        13.1040    3.0050   14.5180 C.3   194  ASP194      0.1424
     85  CG        13.7880    3.1290   13.1890 C.2   194  ASP194      0.3668
     86  OD1       13.1450    3.6030   12.2300 O.co2 194  ASP194     -0.2456
     87  OD2       14.9720    2.7480   13.1100 O.co2 194  ASP194     -0.2456
     88  N         12.5500   -0.1980   13.3460 N.am  195  VAL195     -0.1980
     89  CA        13.1060   -1.5440   13.1160 C.3   195  VAL195      0.1595
     90  C         13.3460   -2.2920   14.4190 C.2   195  VAL195      0.2287
     91  O         14.4150   -2.8640   14.6440 O.2   195  VAL195     -0.2864
     92  CB        14.4390   -1.5160   12.3040 C.3   195  VAL195      0.0276
     93  CG1       14.1580   -1.1790   10.8460 C.3   195  VAL195      0.0022
     94  CG2       15.4080   -0.5210   12.9130 C.3   195  VAL195      0.0022
     95  N          7.9930   -1.0310   14.0770 N.3   236  GLU236     -0.1245
     96  CA         8.2070   -1.1310   12.6420 C.3   236  GLU236      0.1567
     97  C          8.9130   -2.4730   12.5110 C.2   236  GLU236      0.2260
     98  O         10.0980   -2.5960   12.8240 O.2   236  GLU236     -0.2867
     99  CB         9.1140   -0.0120   12.1280 C.3   236  GLU236      0.0388
    100  CG         9.6040   -0.2680   10.7080 C.3   236  GLU236      0.1160
    101  CD        10.6150    0.7460   10.2350 C.2   236  GLU236      0.3649
    102  OE1       11.4960    1.1270   11.0370 O.co2 236  GLU236     -0.2457
    103  OE2       10.5360    1.1490    9.0540 O.co2 236  GLU236     -0.2457
    104  N          9.6080   -5.1430    9.6990 N.3   238  TRP238     -0.1241
    105  CA         9.5960   -5.6060    8.3160 C.3   238  TRP238      0.1605
    106  C          9.6040   -7.1250    8.1740 C.2   238  TRP238      0.2264
    107  O          9.1530   -7.6540    7.1650 O.2   238  TRP238     -0.2867
    108  CB        10.7820   -5.0120    7.5370 C.3   238  TRP238      0.0550
    109  CG        10.6220   -3.5560    7.2050 C.ar  238  TRP238      0.0003
    110  CD1       10.7870   -2.4930    8.0510 C.ar  238  TRP238      0.0946
    111  CD2       10.2340   -3.0040    5.9400 C.ar  238  TRP238      0.0152
    112  NE1       10.5240   -1.3120    7.3890 N.ar  238  TRP238     -0.2442
    113  CE2       10.1810   -1.5980    6.0930 C.ar  238  TRP238      0.0810
    114  CE3        9.9240   -3.5610    4.6910 C.ar  238  TRP238      0.0012
    115  CZ2        9.8320   -0.7420    5.0420 C.ar  238  TRP238      0.0191
    116  CZ3        9.5760   -2.7070    3.6450 C.ar  238  TRP238      0.0001
    117  CH2        9.5350   -1.3120    3.8300 C.ar  238  TRP238      0.0015
    118  N          6.6440    7.7200    5.5310 N.3   312  HIS312     -0.1226
    119  CA         7.7490    8.5680    5.0970 C.3   312  HIS312      0.1752
    120  C          8.8160    7.8210    4.2870 C.2   312  HIS312      0.2596
    121  O          9.7510    8.4430    3.7730 O.2   312  HIS312     -0.2718
    122  CB         8.4110    9.2230    6.3120 C.3   312  HIS312      0.0759
    123  CG         9.1150    8.2490    7.1990 C.ar  312  HIS312      0.0818
    124  ND1        8.4530    7.2420    7.8670 N.ar  312  HIS312     -0.2268
    125  CD2       10.4290    8.0870    7.4820 C.ar  312  HIS312      0.1154
    126  CE1        9.3280    6.4990    8.5200 C.ar  312  HIS312      0.1986
    127  NE2       10.5350    6.9910    8.3010 N.ar  312  HIS312     -0.2212
    128  N          8.6860    6.4990    4.1780 N.am  313  ASP313     -0.1974
    129  CA         9.6470    5.6900    3.4200 C.3   313  ASP313      0.1709
    130  C          9.0100    5.0790    2.1810 C.2   313  ASP313      0.2293
    131  O          9.6560    4.3240    1.4530 O.2   313  ASP313     -0.2864
    132  CB        10.1870    4.5210    4.2550 C.3   313  ASP313      0.1436
    133  CG        10.8740    4.9630    5.5310 C.2   313  ASP313      0.3671
    134  OD1       11.5670    6.0000    5.5160 O.co2 313  ASP313     -0.2456
    135  OD2       10.7310    4.2510    6.5490 O.co2 313  ASP313     -0.2456
    136  N         12.1100    7.3610   -1.4520 N.3   398  ARG398     -0.1245
    137  CA        11.5040    7.8480   -0.2170 C.3   398  ARG398      0.1563
    138  C         11.2500    9.3590   -0.2510 C.2   398  ARG398      0.2260
    139  O         10.3930    9.8610    0.4730 O.2   398  ARG398     -0.2867
    140  CB        12.3730    7.4660    0.9900 C.3   398  ARG398      0.0307
    141  CG        12.6410    5.9620    1.0760 C.3   398  ARG398      0.0489
    142  CD        13.2150    5.5450    2.4080 C.3   398  ARG398      0.2205
    143  NE        14.5050    6.1710    2.6680 N.pl3 398  ARG398     -0.0865
    144  CZ        15.1960    6.0210    3.7930 C.cat 398  ARG398      0.5346
    145  NH1       14.7190    5.2610    4.7680 N.pl3 398  ARG398      0.1354
    146  NH2       16.3650    6.6330    3.9410 N.pl3 398  ARG398      0.1354
    147  N          8.3170   12.9160    1.0510 N.3   402  ARG402     -0.1245
    148  CA         8.8710   14.0000    1.8470 C.3   402  ARG402      0.1563
    149  C          8.7740   15.4250    1.2910 C.2   402  ARG402      0.2260
    150  O          9.4060   16.3370    1.8240 O.2   402  ARG402     -0.2867
    151  CB        10.3260   13.6510    2.1830 C.3   402  ARG402      0.0307
    152  CG        10.4390   12.2490    2.7920 C.3   402  ARG402      0.0489
    153  CD        11.8720   11.7780    2.9960 C.3   402  ARG402      0.2205
    154  NE        11.8970   10.4260    3.5600 N.pl3 402  ARG402     -0.0865
    155  CZ        12.9810    9.8270    4.0450 C.cat 402  ARG402      0.5346
    156  NH1       14.1500   10.4550    4.0420 N.pl3 402  ARG402      0.1354
    157  NH2       12.8940    8.6010    4.5500 N.pl3 402  ARG402      0.1354
@<TRIPOS>BOND
     1   136   137    1
     2   138   137    1
     3   138   139    2
     4   137   140    1
     5    41    40    2
     6   140   141    1
     7   147   148    1
     8   141   142    1
     9   149   150    2
    10   149   148    1
    11    40    39    1
    12   131   130    2
    13   148   151    1
    14   130   129    1
    15   151   152    1
    16    39    42    1
    17    39    38    1
    18   142   143    1
    19   143   144    2
    20   152   153    1
    21   153   154    1
    22    42    43    1
    23   129   128    1
    24   129   132    1
    25    44    43   ar
    26    44    46   ar
    27   154   155    2
    28   116   117   ar
    29   116   114   ar
    30   121   120    2
    31   144   146    1
    32   144   145    1
    33   117   115   ar
    34    43    45   ar
    35   156   155    1
    36   155   157    1
    37    46    48   ar
    38   128   120   am
    39   132   133    1
    40   120   119    1
    41   114   111   ar
    42    45    47   ar
    43   115   113   ar
    44   119   118    1
    45   119   122    1
    46    48    47   ar
    47   134   133   ar
    48   133   135   ar
    49   111   113   ar
    50   111   109   ar
    51   113   112   ar
    52   122   123    1
    53     7     6   ar
    54    52    51    2
    55   107   106    2
    56   123   125   ar
    57   123   124   ar
    58   109   108    1
    59   109   110   ar
    60   112   110   ar
    61    51    50    1
    62   125   127   ar
    63   108   105    1
    64     2     1    1
    65     2     3    1
    66     2     5    1
    67     6     5    1
    68     6     8   ar
    69    50    49    1
    70    50    53    1
    71    55    57   ar
    72    55    54   ar
    73   124   126   ar
    74    57    59   ar
    75     3     4    2
    76   106   105    1
    77   127   126   ar
    78   105   104    1
    79    53    54    1
    80    54    56   ar
    81    67    66    2
    82   103   101   ar
    83    59    58   ar
    84    56    58   ar
    85    66    68   am
    86    66    65    1
    87   101   100    1
    88   101   102   ar
    89    16    18   ar
    90    16    14   ar
    91    18    19   ar
    92   100    99    1
    93    93    92    1
    94    65    64    1
    95    14    13    1
    96    14    15   ar
    97    13    10    1
    98    60    61    1
    99    19    20    1
   100    19    17   ar
   101    64    61    1
   102     9    10    1
   103    78    77    1
   104    61    62    1
   105    99    96    1
   106    15    17   ar
   107    86    85   ar
   108    10    11    1
   109    92    94    1
   110    92    89    1
   111    63    62    2
   112    97    96    1
   113    97    98    2
   114    96    95    1
   115    11    12    2
   116    79    77    1
   117    77    76    2
   118    37    36   ar
   119    37    35   ar
   120    36    34   ar
   121    87    85   ar
   122    89    88    1
   123    89    90    1
   124    85    84    1
   125    88    82   am
   126    35    33   ar
   127    34    33   ar
   128    76    75    1
   129    33    32    1
   130    75    74    1
   131    90    91    2
   132    82    81    1
   133    82    83    2
   134    84    81    1
   135    81    80    1
   136    74    73    1
   137    32    29    1
   138    26    25    1
   139    27    25    1
   140    73    70    1
   141    25    22    1
   142    29    28    1
   143    29    30    1
   144    30    31    2
   145    70    71    1
   146    70    69    1
   147    22    23    1
   148    22    21    1
   149    71    72    2
   150    23    24    2
