@<TRIPOS>MOLECULE
tmp/2zidA00.pdb
 190 181 0 0 0
SMALL
GASTEIGER

@<TRIPOS>ATOM
      1  N         20.2030   10.4610    8.5540 N.3    60  ASP60      -0.1239
      2  CA        19.0360    9.6570    8.2100 C.3    60  ASP60       0.1674
      3  C         17.8140   10.4060    8.7350 C.2    60  ASP60       0.2266
      4  O         16.8560    9.8180    9.2410 O.2    60  ASP60      -0.2867
      5  CB        19.1390    8.2560    8.8220 C.3    60  ASP60       0.1410
      6  CG        18.0200    7.3370    8.3680 C.2    60  ASP60       0.3668
      7  OD1       17.4150    7.6020    7.3070 O.co2  60  ASP60      -0.2456
      8  OD2       17.7490    6.3390    9.0650 O.co2  60  ASP60      -0.2456
      9  N         16.5900    9.6710   12.5010 N.3    63  TYR63      -0.1241
     10  CA        16.7360    8.3240   13.0330 C.3    63  TYR63       0.1605
     11  C         18.1740    8.0200   13.4230 C.2    63  TYR63       0.2264
     12  O         18.5170    6.8850   13.7530 O.2    63  TYR63      -0.2867
     13  CB        16.1770    7.3070   12.0410 C.3    63  TYR63       0.0534
     14  CG        14.6610    7.3590   12.0070 C.ar   63  TYR63      -0.0201
     15  CD1       13.8940    6.6100   12.9040 C.ar   63  TYR63      -0.0009
     16  CD2       13.9940    8.2150   11.1260 C.ar   63  TYR63      -0.0009
     17  CE1       12.4970    6.7130   12.9250 C.ar   63  TYR63       0.0417
     18  CE2       12.5990    8.3280   11.1400 C.ar   63  TYR63       0.0417
     19  CZ        11.8590    7.5760   12.0410 C.ar   63  TYR63       0.1957
     20  OH        10.4840    7.6960   12.0580 O.3    63  TYR63      -0.2866
     21  N         20.0690    1.8530   17.6680 N.3   103  HIS103     -0.1241
     22  CA        21.2910    2.5380   17.2780 C.3   103  HIS103      0.1621
     23  C         21.1760    4.0250   17.5890 C.2   103  HIS103      0.2264
     24  O         20.0850    4.5350   17.8600 O.2   103  HIS103     -0.2867
     25  CB        21.5200    2.3670   15.7760 C.3   103  HIS103      0.0745
     26  CG        20.2920    2.6130   14.9540 C.ar  103  HIS103      0.0817
     27  ND1       19.4020    1.6120   14.6270 N.ar  103  HIS103     -0.2268
     28  CD2       19.7760    3.7560   14.4440 C.ar  103  HIS103      0.1154
     29  CE1       18.3890    2.1280   13.9530 C.ar  103  HIS103      0.1986
     30  NE2       18.5920    3.4270   13.8290 N.ar  103  HIS103     -0.2212
     31  N         21.4860   -2.3990    5.7610 N.3   138  ILE138     -0.1231
     32  CA        20.2290   -2.2200    5.0580 C.3   138  ILE138      0.1692
     33  C         20.3460   -1.1020    4.0170 C.2   138  ILE138      0.2592
     34  O         19.5970   -1.0810    3.0390 O.2   138  ILE138     -0.2718
     35  CB        19.0970   -1.9240    6.0680 C.3   138  ILE138      0.0266
     36  CG1       18.8990   -3.1560    6.9590 C.3   138  ILE138      0.0019
     37  CG2       17.8030   -1.5680    5.3440 C.3   138  ILE138      0.0020
     38  CD1       17.8710   -2.9860    8.0540 C.3   138  ILE138      0.0001
     39  N         21.2870   -0.1800    4.2160 N.am  139  PHE139     -0.1976
     40  CA        21.4710    0.9080    3.2580 C.3   139  PHE139      0.1639
     41  C         22.6450    0.6470    2.3120 C.2   139  PHE139      0.2290
     42  O         23.1860    1.5750    1.7040 O.2   139  PHE139     -0.2864
     43  CB        21.6740    2.2550    3.9720 C.3   139  PHE139      0.0560
     44  CG        20.4820    2.7120    4.7830 C.ar  139  PHE139     -0.0200
     45  CD1       19.2270    2.1290    4.6090 C.ar  139  PHE139     -0.0042
     46  CD2       20.6200    3.7370    5.7210 C.ar  139  PHE139     -0.0042
     47  CE1       18.1250    2.5610    5.3600 C.ar  139  PHE139     -0.0003
     48  CE2       19.5290    4.1770    6.4770 C.ar  139  PHE139     -0.0003
     49  CZ        18.2800    3.5900    6.2980 C.ar  139  PHE139     -0.0000
     50  N         22.3500   -0.0010    9.6110 N.3   158  PHE158     -0.1241
     51  CA        21.8720    1.0880    8.7820 C.3   158  PHE158      0.1605
     52  C         23.0580    1.8790    8.2540 C.2   158  PHE158      0.2264
     53  O         24.0250    1.2690    7.7940 O.2   158  PHE158     -0.2867
     54  CB        20.8690    1.9160    9.5770 C.3   158  PHE158      0.0534
     55  CG        19.6060    1.1530    9.8780 C.ar  158  PHE158     -0.0203
     56  CD1       18.6550    0.9420    8.8820 C.ar  158  PHE158     -0.0042
     57  CD2       19.4180    0.5470   11.1180 C.ar  158  PHE158     -0.0042
     58  CE1       17.5390    0.1320    9.1150 C.ar  158  PHE158     -0.0003
     59  CE2       18.3050   -0.2660   11.3590 C.ar  158  PHE158     -0.0003
     60  CZ        17.3660   -0.4740   10.3550 C.ar  158  PHE158     -0.0000
     61  N         25.2580    5.5190   12.0500 N.3   162  GLN162     -0.1245
     62  CA        24.2650    5.0060   12.9850 C.3   162  GLN162      0.1566
     63  C         24.7670    3.7140   13.6040 C.2   162  GLN162      0.2260
     64  O         24.2400    2.6380   13.3290 O.2   162  GLN162     -0.2867
     65  CB        22.9330    4.7410   12.2840 C.3   162  GLN162      0.0367
     66  CG        22.2270    5.9940   11.8060 C.3   162  GLN162      0.0905
     67  CD        21.0360    5.6700   10.9430 C.2   162  GLN162      0.2608
     68  OE1       19.8880    5.7810   11.3730 O.2   162  GLN162     -0.2717
     69  NE2       21.3020    5.2520    9.7170 N.am  162  GLN162     -0.0878
     70  N          6.5050    4.8130   19.4980 N.3   192  ARG192     -0.1245
     71  CA         6.4850    4.0590   18.2500 C.3   192  ARG192      0.1563
     72  C          7.9270    3.5640   18.2920 C.2   192  ARG192      0.2260
     73  O          8.8540    4.3700   18.3170 O.2   192  ARG192     -0.2867
     74  CB         6.2500    4.9730   17.0440 C.3   192  ARG192      0.0307
     75  CG         6.3870    4.2910   15.6870 C.3   192  ARG192      0.0489
     76  CD         7.8440    4.2220   15.2050 C.3   192  ARG192      0.2205
     77  NE         7.9430    3.6730   13.8480 N.pl3 192  ARG192     -0.0865
     78  CZ         9.0610    3.6430   13.1250 C.cat 192  ARG192      0.5346
     79  NH1       10.1940    4.1290   13.6200 N.pl3 192  ARG192      0.1354
     80  NH2        9.0460    3.1420   11.8940 N.pl3 192  ARG192      0.1354
     81  N         11.1250    2.0290   16.7440 N.3   194  ASP194     -0.1225
     82  CA        11.9180    1.8400   15.5330 C.3   194  ASP194      0.1805
     83  C         12.6560    0.4960   15.4910 C.2   194  ASP194      0.2597
     84  O         13.4650    0.2030   16.3700 O.2   194  ASP194     -0.2718
     85  CB        12.9220    2.9940   15.4380 C.3   194  ASP194      0.1424
     86  CG        13.5410    3.1200   14.0710 C.2   194  ASP194      0.3668
     87  OD1       12.8220    3.5130   13.1310 O.co2 194  ASP194     -0.2456
     88  OD2       14.7510    2.8320   13.9410 O.co2 194  ASP194     -0.2456
     89  N         12.3710   -0.3010   14.4610 N.am  195  VAL195     -0.1980
     90  CA        12.9740   -1.6230   14.2470 C.3   195  VAL195      0.1595
     91  C         13.2690   -2.3620   15.5440 C.2   195  VAL195      0.2287
     92  O         14.2960   -3.0380   15.6780 O.2   195  VAL195     -0.2864
     93  CB        14.2800   -1.5210   13.4200 C.3   195  VAL195      0.0276
     94  CG1       13.9740   -0.9270   12.0520 C.3   195  VAL195      0.0022
     95  CG2       15.3140   -0.6600   14.1570 C.3   195  VAL195      0.0022
     96  N         16.8210  -10.1190   13.3460 N.3   209  SER209     -0.1217
     97  CA        15.4850   -9.9430   13.9150 C.3   209  SER209      0.1889
     98  C         15.0310  -11.1810   14.6840 C.2   209  SER209      0.2288
     99  O         15.5500  -12.2780   14.4770 O.2   209  SER209     -0.2866
    100  CB        14.4670   -9.6400   12.8110 C.3   209  SER209      0.2089
    101  OG        14.6860   -8.3590   12.2430 O.3   209  SER209     -0.2183
    102  N          7.7780   -1.3000   15.4030 N.3   236  GLN236     -0.1245
    103  CA         7.9480   -1.5290   13.9730 C.3   236  GLN236      0.1566
    104  C          8.6530   -2.8800   13.8760 C.2   236  GLN236      0.2260
    105  O          9.8280   -2.9970   14.2290 O.2   236  GLN236     -0.2867
    106  CB         8.8240   -0.4440   13.3510 C.3   236  GLN236      0.0367
    107  CG         9.2290   -0.7670   11.9280 C.3   236  GLN236      0.0905
    108  CD        10.2960    0.1620   11.3920 C.2   236  GLN236      0.2608
    109  OE1       11.1490    0.6420   12.1380 O.2   236  GLN236     -0.2717
    110  NE2       10.2700    0.3980   10.0870 N.am  236  GLN236     -0.0878
    111  N          9.4360   -5.7100   11.1170 N.3   238  TRP238     -0.1241
    112  CA         9.4340   -6.2800    9.7710 C.3   238  TRP238      0.1605
    113  C          9.4480   -7.8030    9.7850 C.2   238  TRP238      0.2264
    114  O          8.8890   -8.4380    8.8970 O.2   238  TRP238     -0.2867
    115  CB        10.6380   -5.7840    8.9580 C.3   238  TRP238      0.0550
    116  CG        10.4420   -4.4290    8.3520 C.ar  238  TRP238      0.0003
    117  CD1       10.5840   -3.2230    8.9730 C.ar  238  TRP238      0.0946
    118  CD2       10.0210   -4.1450    7.0120 C.ar  238  TRP238      0.0152
    119  NE1       10.2760   -2.2020    8.1030 N.ar  238  TRP238     -0.2442
    120  CE2        9.9260   -2.7410    6.8920 C.ar  238  TRP238      0.0810
    121  CE3        9.7110   -4.9420    5.9000 C.ar  238  TRP238      0.0012
    122  CZ2        9.5340   -2.1120    5.7020 C.ar  238  TRP238      0.0191
    123  CZ3        9.3200   -4.3170    4.7170 C.ar  238  TRP238      0.0001
    124  CH2        9.2360   -2.9150    4.6300 C.ar  238  TRP238      0.0015
    125  N         13.3350   -4.0970   -2.6800 N.3   275  LYS275     -0.1245
    126  CA        12.1470   -3.2930   -2.9160 C.3   275  LYS275      0.1561
    127  C         12.2250   -2.4780   -4.2010 C.2   275  LYS275      0.2260
    128  O         11.2010   -2.0460   -4.7300 O.2   275  LYS275     -0.2867
    129  CB        11.8860   -2.3640   -1.7250 C.3   275  LYS275      0.0271
    130  CG        12.9440   -1.2940   -1.4800 C.3   275  LYS275      0.0035
    131  CD        12.5860   -0.4900   -0.2270 C.3   275  LYS275      0.0206
    132  CE        13.5440    0.6650    0.0110 C.3   275  LYS275      0.1093
    133  NZ        13.1360    1.4640    1.2060 N.3   275  LYS275     -0.1314
    134  N          6.5380    7.2990    6.3840 N.3   312  HIS312     -0.1226
    135  CA         7.6820    8.0790    5.9160 C.3   312  HIS312      0.1752
    136  C          8.7170    7.2480    5.1590 C.2   312  HIS312      0.2596
    137  O          9.6450    7.8070    4.5750 O.2   312  HIS312     -0.2718
    138  CB         8.3670    8.7680    7.1020 C.3   312  HIS312      0.0759
    139  CG         8.9810    7.8120    8.0750 C.ar  312  HIS312      0.0818
    140  ND1        8.2360    6.9000    8.7920 N.ar  312  HIS312     -0.2268
    141  CD2       10.2740    7.5870    8.4090 C.ar  312  HIS312      0.1154
    142  CE1        9.0440    6.1530    9.5230 C.ar  312  HIS312      0.1986
    143  NE2       10.2870    6.5490    9.3080 N.ar  312  HIS312     -0.2212
    144  N          8.5660    5.9230    5.1760 N.am  313  ASP313     -0.1960
    145  CA         9.5020    5.0320    4.4850 C.3   313  ASP313      0.1840
    146  C          8.8860    4.3900    3.2520 C.2   313  ASP313      0.2621
    147  O          9.5530    3.6310    2.5460 O.2   313  ASP313     -0.2715
    148  CB         9.9540    3.8760    5.3870 C.3   313  ASP313      0.1450
    149  CG        10.6660    4.3330    6.6370 C.2   313  ASP313      0.3671
    150  OD1       11.4770    5.2820    6.5610 O.co2 313  ASP313     -0.2456
    151  OD2       10.4230    3.7110    7.6960 O.co2 313  ASP313     -0.2456
    152  N          7.6200    4.6810    2.9890 N.am  314  LEU314     -0.1977
    153  CA         6.9370    4.0420    1.8740 C.3   314  LEU314      0.1596
    154  C          6.3170    4.9650    0.8460 C.2   314  LEU314      0.2287
    155  O          6.0950    6.1490    1.1020 O.2   314  LEU314     -0.2864
    156  CB         5.8390    3.1280    2.4250 C.3   314  LEU314      0.0297
    157  CG         6.2660    1.9990    3.3640 C.3   314  LEU314      0.0022
    158  CD1        5.0370    1.3780    4.0270 C.3   314  LEU314      0.0001
    159  CD2        7.0420    0.9590    2.5700 C.3   314  LEU314      0.0001
    160  N         19.3580    6.3440    1.6480 N.3   371  GLU371     -0.1245
    161  CA        19.0140    5.0260    1.1260 C.3   371  GLU371      0.1567
    162  C         18.9160    5.0220   -0.4010 C.2   371  GLU371      0.2260
    163  O         19.4260    4.1140   -1.0520 O.2   371  GLU371     -0.2867
    164  CB        17.6960    4.5300    1.7120 C.3   371  GLU371      0.0388
    165  CG        17.3670    3.1110    1.2890 C.3   371  GLU371      0.1160
    166  CD        15.9660    2.6900    1.6830 C.2   371  GLU371      0.3649
    167  OE1       15.0040    3.3110    1.1940 O.co2 371  GLU371     -0.2457
    168  OE2       15.8290    1.7390    2.4780 O.co2 371  GLU371     -0.2457
    169  N         12.0830    6.7340   -0.6410 N.3   398  ARG398     -0.1245
    170  CA        11.4710    7.2640    0.5730 C.3   398  ARG398      0.1563
    171  C         11.1630    8.7600    0.4960 C.2   398  ARG398      0.2260
    172  O         10.2840    9.2480    1.2120 O.2   398  ARG398     -0.2867
    173  CB        12.3510    6.9580    1.7930 C.3   398  ARG398      0.0307
    174  CG        12.5170    5.4600    2.0620 C.3   398  ARG398      0.0489
    175  CD        13.0570    5.1720    3.4570 C.3   398  ARG398      0.2205
    176  NE        14.3890    5.7300    3.6820 N.pl3 398  ARG398     -0.0865
    177  CZ        15.0570    5.6230    4.8280 C.cat 398  ARG398      0.5346
    178  NH1       16.2670    6.1610    4.9520 N.pl3 398  ARG398      0.1354
    179  NH2       14.5170    4.9730    5.8540 N.pl3 398  ARG398      0.1354
    180  N          8.1540   12.2750    1.6770 N.3   402  ARG402     -0.1245
    181  CA         8.6760   13.3890    2.4450 C.3   402  ARG402      0.1563
    182  C          8.5700   14.7780    1.8320 C.2   402  ARG402      0.2260
    183  O          9.1440   15.7270    2.3690 O.2   402  ARG402     -0.2867
    184  CB        10.1250   13.0730    2.8260 C.3   402  ARG402      0.0307
    185  CG        10.2470   11.7110    3.4970 C.3   402  ARG402      0.0489
    186  CD        11.6790   11.2670    3.7440 C.3   402  ARG402      0.2205
    187  NE        11.6900    9.9540    4.3880 N.pl3 402  ARG402     -0.0865
    188  CZ        12.7760    9.3360    4.8470 C.cat 402  ARG402      0.5346
    189  NH1       13.9680    9.9030    4.7420 N.pl3 402  ARG402      0.1354
    190  NH2       12.6660    8.1410    5.4160 N.pl3 402  ARG402      0.1354
@<TRIPOS>BOND
     1   128   127    2
     2   127   126    1
     3   126   125    1
     4   126   129    1
     5   129   130    1
     6   130   131    1
     7   163   162    2
     8   169   170    1
     9   162   161    1
    10   131   132    1
    11   132   133    1
    12   171   170    1
    13   171   172    2
    14   170   173    1
    15   154   155    2
    16   154   153    1
    17   161   160    1
    18   161   164    1
    19   167   166   ar
    20   165   166    1
    21   165   164    1
    22   180   181    1
    23   166   168   ar
    24    42    41    2
    25   173   174    1
    26   182   183    2
    27   182   181    1
    28   153   156    1
    29   153   152    1
    30   174   175    1
    31    41    40    1
    32   156   157    1
    33   181   184    1
    34   147   146    2
    35   159   157    1
    36   184   185    1
    37   152   146   am
    38    34    33    2
    39   146   145    1
    40    40    43    1
    41    40    39    1
    42   157   158    1
    43   175   176    1
    44   185   186    1
    45   176   177    2
    46   186   187    1
    47    43    44    1
    48    33    39   am
    49    33    32    1
    50   187   188    2
    51   145   144    1
    52   145   148    1
    53   137   136    2
    54    45    44   ar
    55    45    47   ar
    56   124   123   ar
    57   124   122   ar
    58   123   121   ar
    59   189   188    1
    60    44    46   ar
    61   177   178    1
    62   177   179    1
    63   188   190    1
    64    32    31    1
    65    32    35    1
    66   136   144   am
    67   136   135    1
    68    37    35    1
    69    47    49   ar
    70   148   149    1
    71   122   120   ar
    72    46    48   ar
    73   121   118   ar
    74   135   134    1
    75   135   138    1
    76    35    36    1
    77    49    48   ar
    78   150   149   ar
    79   149   151   ar
    80   120   118   ar
    81   120   119   ar
    82    36    38    1
    83   118   116   ar
    84   138   139    1
    85     7     6   ar
    86    53    52    2
    87   139   141   ar
    88   139   140   ar
    89   119   117   ar
    90     2     1    1
    91     2     3    1
    92     2     5    1
    93    52    51    1
    94   116   115    1
    95   116   117   ar
    96     6     5    1
    97     6     8   ar
    98   141   143   ar
    99     3     4    2
   100    51    54    1
   101    51    50    1
   102   140   142   ar
   103    56    58   ar
   104    56    55   ar
   105   114   113    2
   106   115   112    1
   107    58    60   ar
   108   143   142   ar
   109    54    55    1
   110    69    67   am
   111   112   113    1
   112   112   111    1
   113    55    57   ar
   114   110   108   am
   115    60    59   ar
   116    67    68    2
   117    67    66    1
   118    57    59   ar
   119    16    18   ar
   120    16    14   ar
   121    18    19   ar
   122   108   107    1
   123   108   109    2
   124    66    65    1
   125    80    78    1
   126   107   106    1
   127    14    13    1
   128    14    15   ar
   129    13    10    1
   130    19    20    1
   131    19    17   ar
   132    61    62    1
   133    94    93    1
   134   101   100    1
   135    65    62    1
   136     9    10    1
   137   100    97    1
   138    15    17   ar
   139    62    63    1
   140    10    11    1
   141    78    79    1
   142    78    77    2
   143    87    86   ar
   144    64    63    2
   145    96    97    1
   146   106   103    1
   147    93    95    1
   148    93    90    1
   149    11    12    2
   150    30    29   ar
   151    30    28   ar
   152    77    76    1
   153   104   103    1
   154   104   105    2
   155    97    98    1
   156    88    86   ar
   157    29    27   ar
   158   103   102    1
   159    86    85    1
   160    90    89    1
   161    90    91    1
   162    28    26   ar
   163    89    83   am
   164    99    98    2
   165    27    26   ar
   166    26    25    1
   167    76    75    1
   168    85    82    1
   169    83    82    1
   170    83    84    2
   171    82    81    1
   172    91    92    2
   173    75    74    1
   174    25    22    1
   175    74    71    1
   176    22    23    1
   177    22    21    1
   178    23    24    2
   179    71    72    1
   180    71    70    1
   181    72    73    2
