@<TRIPOS>MOLECULE
tmp/2zifB00.pdb
 175 176 0 0 0
SMALL
GASTEIGER

@<TRIPOS>ATOM
      1  N         46.6140   38.6020   33.4820 N.3     7  GLY7       -0.1210
      2  CA        45.6510   39.6790   33.3830 C.3     7  GLY7        0.1956
      3  C         44.7120   39.7790   34.5700 C.2     7  GLY7        0.2612
      4  O         44.9500   39.1860   35.6320 O.2     7  GLY7       -0.2717
      5  N         43.6400   40.5410   34.3810 N.am    8  ASP8       -0.1959
      6  CA        42.6410   40.7640   35.4150 C.3     8  ASP8        0.1840
      7  C         41.5300   39.7190   35.3700 C.2     8  ASP8        0.2622
      8  O         40.8230   39.5870   34.3660 O.2     8  ASP8       -0.2715
      9  CB        42.0350   42.1510   35.2520 C.3     8  ASP8        0.1450
     10  CG        40.9030   42.4000   36.2130 C.2     8  ASP8        0.3671
     11  OD1       41.1730   42.8250   37.3550 O.co2   8  ASP8       -0.2456
     12  OD2       39.7400   42.1580   35.8230 O.co2   8  ASP8       -0.2456
     13  N         41.3790   39.0030   36.4800 N.am    9  ALA9       -0.1963
     14  CA        40.3910   37.9480   36.6390 C.3     9  ALA9        0.1728
     15  C         39.0110   38.2750   36.0830 C.2     9  ALA9        0.2616
     16  O         38.3990   37.4330   35.4300 O.2     9  ALA9       -0.2715
     17  CB        40.2810   37.5640   38.1150 C.3     9  ALA9        0.0334
     18  N         38.5200   39.4850   36.3330 N.am   10  ARG10      -0.1977
     19  CA        37.1960   39.8720   35.8480 C.3    10  ARG10       0.1597
     20  C         37.1320   39.9280   34.3280 C.2    10  ARG10       0.2287
     21  O         36.2830   39.2840   33.7040 O.2    10  ARG10      -0.2864
     22  CB        36.7960   41.2380   36.4060 C.3    10  ARG10       0.0334
     23  CG        35.2870   41.5260   36.3610 C.3    10  ARG10       0.0492
     24  CD        34.7020   41.5430   34.9490 C.3    10  ARG10       0.2205
     25  NE        35.3310   42.5480   34.0950 N.pl3  10  ARG10      -0.0865
     26  CZ        35.3930   43.8450   34.3830 C.cat  10  ARG10       0.5346
     27  NH1       34.8600   44.3050   35.5110 N.pl3  10  ARG10       0.1354
     28  NH2       35.9910   44.6870   33.5440 N.pl3  10  ARG10       0.1354
     29  N         42.1730   30.9670   46.1330 N.3    27  SER27      -0.1203
     30  CA        42.2670   31.6920   47.3810 C.3    27  SER27       0.2005
     31  C         42.2250   33.1660   46.9900 C.2    27  SER27       0.2461
     32  O         43.1000   33.6550   46.2810 O.2    27  SER27      -0.2732
     33  CB        43.5870   31.3550   48.0700 C.3    27  SER27       0.2103
     34  OG        43.5280   31.6790   49.4420 O.3    27  SER27      -0.2182
     35  N         41.2040   33.8950   47.4450 N.am   28  PRO28      -0.2718
     36  CA        41.1290   35.3100   47.0870 C.3    28  PRO28       0.1520
     37  C         42.3620   36.0940   47.5220 C.2    28  PRO28       0.2440
     38  O         43.0690   35.7010   48.4470 O.2    28  PRO28      -0.2731
     39  CB        39.8650   35.7770   47.7960 C.3    28  PRO28       0.0310
     40  CG        39.8530   34.9240   49.0140 C.3    28  PRO28       0.0237
     41  CD        40.2330   33.5630   48.5010 C.3    28  PRO28       0.0939
     42  N         42.6410   37.2130   46.8380 N.am   29  PRO29      -0.2716
     43  CA        43.7900   38.0650   47.1470 C.3    29  PRO29       0.1536
     44  C         43.7470   38.7220   48.5260 C.2    29  PRO29       0.2598
     45  O         42.6810   38.9580   49.0880 O.2    29  PRO29      -0.2715
     46  CB        43.7900   39.0820   45.9980 C.3    29  PRO29       0.0310
     47  CG        42.3670   39.0910   45.5250 C.3    29  PRO29       0.0237
     48  CD        41.9900   37.6430   45.5880 C.3    29  PRO29       0.0939
     49  N         44.9390   38.9930   49.0510 N.am   30  TYR30      -0.1974
     50  CA        45.1580   39.6130   50.3550 C.3    30  TYR30       0.1639
     51  C         44.2830   40.8370   50.6150 C.2    30  TYR30       0.2290
     52  O         44.2710   41.7770   49.8220 O.2    30  TYR30      -0.2864
     53  CB        46.6260   40.0270   50.4590 C.3    30  TYR30       0.0560
     54  CG        47.0490   40.5840   51.8030 C.ar   30  TYR30      -0.0198
     55  CD1       48.2020   41.3660   51.9200 C.ar   30  TYR30      -0.0009
     56  CD2       46.3220   40.3040   52.9630 C.ar   30  TYR30      -0.0009
     57  CE1       48.6210   41.8530   53.1570 C.ar   30  TYR30       0.0417
     58  CE2       46.7310   40.7860   54.2040 C.ar   30  TYR30       0.0417
     59  CZ        47.8800   41.5580   54.2950 C.ar   30  TYR30       0.1957
     60  OH        48.2830   42.0340   55.5230 O.3    30  TYR30      -0.2866
     61  N         51.9240   32.0020   48.9390 N.3   167  ALA167     -0.1231
     62  CA        51.0270   30.9390   48.5050 C.3   167  ALA167      0.1679
     63  C         50.1540   30.5230   49.6720 C.2   167  ALA167      0.2434
     64  O         50.5560   29.7060   50.5010 O.2   167  ALA167     -0.2733
     65  CB        51.8230   29.7490   47.9990 C.3   167  ALA167      0.0304
     66  N         48.9390   31.0850   49.7530 N.am  168  PRO168     -0.2718
     67  CA        47.9570   30.8110   50.8090 C.3   168  PRO168      0.1535
     68  C         47.7400   29.3350   51.1170 C.2   168  PRO168      0.2598
     69  O         47.1430   29.0060   52.1470 O.2   168  PRO168     -0.2715
     70  CB        46.6850   31.4780   50.2810 C.3   168  PRO168      0.0310
     71  CG        46.8770   31.4380   48.7910 C.3   168  PRO168      0.0237
     72  CD        48.3140   31.8810   48.6880 C.3   168  PRO168      0.0939
     73  N         48.2080   28.4440   50.2400 N.am  169  PHE169     -0.1974
     74  CA        48.0200   27.0280   50.5120 C.3   169  PHE169      0.1639
     75  C         48.9800   26.0420   49.8480 C.2   169  PHE169      0.2290
     76  O         49.4560   26.2650   48.7400 O.2   169  PHE169     -0.2864
     77  CB        46.5560   26.6310   50.2270 C.3   169  PHE169      0.0560
     78  CG        46.1240   26.8020   48.7890 C.ar  169  PHE169     -0.0200
     79  CD1       46.7360   26.0910   47.7610 C.ar  169  PHE169     -0.0042
     80  CD2       45.0560   27.6260   48.4710 C.ar  169  PHE169     -0.0042
     81  CE1       46.2780   26.2010   46.4380 C.ar  169  PHE169     -0.0003
     82  CE2       44.5980   27.7370   47.1580 C.ar  169  PHE169     -0.0003
     83  CZ        45.2110   27.0230   46.1450 C.ar  169  PHE169     -0.0000
     84  N         41.5900   28.5260   38.4580 N.3   190  ASP190     -0.1225
     85  CA        42.0330   29.3250   39.5900 C.3   190  ASP190      0.1790
     86  C         42.2260   30.7150   38.9960 C.2   190  ASP190      0.2440
     87  O         43.2150   30.9660   38.3030 O.2   190  ASP190     -0.2733
     88  CB        43.3660   28.8360   40.1660 C.3   190  ASP190      0.1423
     89  CG        43.7460   29.5780   41.4400 C.2   190  ASP190      0.3668
     90  OD1       43.2840   30.7260   41.6050 O.co2 190  ASP190     -0.2456
     91  OD2       44.5050   29.0260   42.2710 O.co2 190  ASP190     -0.2456
     92  N         41.2820   31.6360   39.2500 N.am  191  PRO191     -0.2718
     93  CA        41.3910   32.9960   38.7120 C.3   191  PRO191      0.1535
     94  C         42.4720   33.8300   39.4040 C.2   191  PRO191      0.2599
     95  O         42.8220   34.9100   38.9330 O.2   191  PRO191     -0.2715
     96  CB        39.9970   33.5870   38.9480 C.3   191  PRO191      0.0310
     97  CG        39.1300   32.4140   39.2850 C.3   191  PRO191      0.0237
     98  CD        40.0500   31.4980   40.0320 C.3   191  PRO191      0.0939
     99  N         42.9840   33.3320   40.5240 N.am  192  PHE192     -0.1960
    100  CA        44.0150   34.0330   41.2880 C.3   192  PHE192      0.1771
    101  C         45.1790   33.0760   41.5010 C.2   192  PHE192      0.2619
    102  O         45.5650   32.8000   42.6270 O.2   192  PHE192     -0.2715
    103  CB        43.4450   34.4600   42.6420 C.3   192  PHE192      0.0574
    104  CG        42.2070   35.2940   42.5400 C.ar  192  PHE192     -0.0200
    105  CD1       40.9910   34.8100   42.9990 C.ar  192  PHE192     -0.0042
    106  CD2       42.2510   36.5620   41.9720 C.ar  192  PHE192     -0.0042
    107  CE1       39.8320   35.5690   42.9000 C.ar  192  PHE192     -0.0003
    108  CE2       41.0910   37.3370   41.8650 C.ar  192  PHE192     -0.0003
    109  CZ        39.8790   36.8370   42.3310 C.ar  192  PHE192     -0.0000
    110  N         45.7360   32.5890   40.4010 N.am  193  ALA193     -0.1963
    111  CA        46.8090   31.6050   40.4180 C.3   193  ALA193      0.1728
    112  C         48.0990   31.8790   41.1830 C.2   193  ALA193      0.2617
    113  O         48.7030   30.9460   41.6990 O.2   193  ALA193     -0.2715
    114  CB        47.1450   31.2190   38.9820 C.3   193  ALA193      0.0334
    115  N         48.5420   33.1300   41.2540 N.am  194  GLY194     -0.1940
    116  CA        49.7830   33.3970   41.9640 C.3   194  GLY194      0.2014
    117  C         50.9060   32.5200   41.4200 C.2   194  GLY194      0.2639
    118  O         51.2110   32.5750   40.2330 O.2   194  GLY194     -0.2714
    119  N         51.5230   31.7050   42.2700 N.am  195  THR195     -0.1950
    120  CA        52.5980   30.8320   41.8120 C.3   195  THR195      0.1897
    121  C         52.0730   29.5570   41.1760 C.2   195  THR195      0.2313
    122  O         52.8400   28.6400   40.8970 O.2   195  THR195     -0.2863
    123  CB        53.5750   30.4590   42.9500 C.3   195  THR195      0.1794
    124  OG1       52.9090   29.6500   43.9260 O.3   195  THR195     -0.2208
    125  CG2       54.0990   31.7160   43.6100 C.3   195  THR195      0.0378
    126  N         49.9060   27.0180   42.3580 N.3   197  THR197     -0.1218
    127  CA        49.7300   25.7720   43.1010 C.3   197  THR197      0.1862
    128  C         48.5400   24.9710   42.5720 C.2   197  THR197      0.2287
    129  O         48.6510   23.7560   42.3730 O.2   197  THR197     -0.2866
    130  CB        49.4760   26.0200   44.5920 C.3   197  THR197      0.1770
    131  OG1       50.4520   26.9310   45.0900 O.3   197  THR197     -0.2211
    132  CG2       49.5700   24.7130   45.3790 C.3   197  THR197      0.0375
    133  N         44.2990   32.5580   35.8610 N.3   212  VAL212     -0.1231
    134  CA        44.5000   33.9840   35.6320 C.3   212  VAL212      0.1692
    135  C         45.4070   34.5040   36.7460 C.2   212  VAL212      0.2592
    136  O         45.3270   34.0410   37.8790 O.2   212  VAL212     -0.2718
    137  CB        43.1690   34.7590   35.6920 C.3   212  VAL212      0.0266
    138  CG1       43.3130   36.0940   34.9710 C.3   212  VAL212      0.0020
    139  CG2       42.0530   33.9280   35.0960 C.3   212  VAL212      0.0020
    140  N         46.2730   35.4570   36.4240 N.am  213  GLU213     -0.1966
    141  CA        47.1900   36.0310   37.4100 C.3   213  GLU213      0.1733
    142  C         47.5750   37.4280   36.9510 C.2   213  GLU213      0.2616
    143  O         48.1660   37.6040   35.8830 O.2   213  GLU213     -0.2715
    144  CB        48.4280   35.1360   37.5610 C.3   213  GLU213      0.0429
    145  CG        49.5780   35.7100   38.3960 C.3   213  GLU213      0.1163
    146  CD        49.1230   36.4430   39.6460 C.2   213  GLU213      0.3649
    147  OE1       48.1750   35.9810   40.3200 O.co2 213  GLU213     -0.2457
    148  OE2       49.7320   37.4830   39.9670 O.co2 213  GLU213     -0.2457
    149  N         47.2260   38.4200   37.7610 N.am  214  LEU214     -0.1963
    150  CA        47.4910   39.8170   37.4410 C.3   214  LEU214      0.1728
    151  C         48.9710   40.1670   37.3140 C.2   214  LEU214      0.2616
    152  O         49.3680   40.9220   36.4290 O.2   214  LEU214     -0.2715
    153  CB        46.8450   40.7070   38.5050 C.3   214  LEU214      0.0311
    154  CG        46.9150   42.2280   38.3430 C.3   214  LEU214      0.0022
    155  CD1       46.3420   42.6370   36.9860 C.3   214  LEU214      0.0001
    156  CD2       46.1340   42.8880   39.4740 C.3   214  LEU214      0.0001
    157  N         49.7930   39.6100   38.1900 N.am  215  VAL215     -0.1977
    158  CA        51.2110   39.9300   38.1760 C.3   215  VAL215      0.1596
    159  C         52.0760   39.0160   37.3170 C.2   215  VAL215      0.2287
    160  O         52.3070   37.8470   37.6520 O.2   215  VAL215     -0.2864
    161  CB        51.7720   39.9630   39.6170 C.3   215  VAL215      0.0276
    162  CG1       53.2300   40.3810   39.6020 C.3   215  VAL215      0.0022
    163  CG2       50.9440   40.9280   40.4710 C.3   215  VAL215      0.0022
    164  N         54.6560   36.9090   38.9000 N.3   218  TYR218     -0.1241
    165  CA        54.1690   35.7100   39.5770 C.3   218  TYR218      0.1605
    166  C         53.8810   34.6290   38.5470 C.2   218  TYR218      0.2264
    167  O         54.2230   33.4650   38.7440 O.2   218  TYR218     -0.2867
    168  CB        52.8940   36.0150   40.3700 C.3   218  TYR218      0.0534
    169  CG        53.0660   37.0050   41.5120 C.ar  218  TYR218     -0.0201
    170  CD1       51.9550   37.6150   42.0960 C.ar  218  TYR218     -0.0009
    171  CD2       54.3320   37.3360   42.0040 C.ar  218  TYR218     -0.0009
    172  CE1       52.0950   38.5270   43.1300 C.ar  218  TYR218      0.0417
    173  CE2       54.4830   38.2540   43.0450 C.ar  218  TYR218      0.0417
    174  CZ        53.3580   38.8460   43.6000 C.ar  218  TYR218      0.1957
    175  OH        53.4890   39.7740   44.6140 O.3   218  TYR218     -0.2866
@<TRIPOS>BOND
     1     2     1    1
     2     2     3    1
     3    28    26    1
     4    21    20    2
     5    25    26    2
     6    25    24    1
     7    20    19    1
     8     8     7    2
     9     5     3   am
    10     5     6    1
    11    26    27    1
    12     3     4    2
    13    24    23    1
    14   138   137    1
    15   139   137    1
    16     9     6    1
    17     9    10    1
    18     7     6    1
    19     7    13   am
    20    16    15    2
    21   134   137    1
    22   134   133    1
    23   134   135    1
    24    12    10   ar
    25    19    18    1
    26    19    22    1
    27   143   142    2
    28    15    18   am
    29    15    14    1
    30    10    11   ar
    31    23    22    1
    32   140   135   am
    33   140   141    1
    34   152   151    2
    35    13    14    1
    36    14    17    1
    37   135   136    2
    38   142   141    1
    39   142   149   am
    40   155   154    1
    41   151   150    1
    42   151   157   am
    43   159   160    2
    44   159   158    1
    45   141   144    1
    46   150   149    1
    47   150   153    1
    48   144   145    1
    49   158   157    1
    50   158   161    1
    51    87    86    2
    52   154   153    1
    53   154   156    1
    54   145   146    1
    55    84    85    1
    56   166   167    2
    57   166   165    1
    58    93    96    1
    59    93    92    1
    60    93    94    1
    61   164   165    1
    62    95    94    2
    63    96    97    1
    64   114   111    1
    65    86    92   am
    66    86    85    1
    67    92    98    1
    68    97    98    1
    69    94    99   am
    70   165   168    1
    71    85    88    1
    72   162   161    1
    73   161   163    1
    74   146   148   ar
    75   146   147   ar
    76    88    89    1
    77   118   117    2
    78   168   169    1
    79   110   111    1
    80   110   101   am
    81   111   112    1
    82    99   100    1
    83   122   121    2
    84   121   120    1
    85   112   115   am
    86   112   113    2
    87   115   116    1
    88   100   101    1
    89   100   103    1
    90   117   116    1
    91   117   119   am
    92    89    90   ar
    93    89    91   ar
    94   101   102    2
    95   169   171   ar
    96   169   170   ar
    97   120   119    1
    98   120   123    1
    99   108   106   ar
   100   108   109   ar
   101   106   104   ar
   102   171   173   ar
   103   170   172   ar
   104   109   107   ar
   105   126   127    1
   106   129   128    2
   107   104   103    1
   108   104   105   ar
   109   128   127    1
   110   107   105   ar
   111   123   125    1
   112   123   124    1
   113   173   174   ar
   114   127   130    1
   115   172   174   ar
   116   174   175    1
   117   130   131    1
   118   130   132    1
   119    47    48    1
   120    47    46    1
   121    48    42    1
   122    46    43    1
   123    29    30    1
   124    83    81   ar
   125    83    82   ar
   126    32    31    2
   127    81    79   ar
   128    42    43    1
   129    42    37   am
   130    31    30    1
   131    31    35   am
   132    36    35    1
   133    36    37    1
   134    36    39    1
   135    43    44    1
   136    82    80   ar
   137    30    33    1
   138    35    41    1
   139    37    38    2
   140    79    78   ar
   141    39    40    1
   142    65    62    1
   143    33    34    1
   144    80    78   ar
   145    41    40    1
   146    62    61    1
   147    62    63    1
   148    44    49   am
   149    44    45    2
   150    72    71    1
   151    72    66    1
   152    76    75    2
   153    78    77    1
   154    71    70    1
   155    49    50    1
   156    63    66   am
   157    63    64    2
   158    66    67    1
   159    52    51    2
   160    75    74    1
   161    77    74    1
   162    73    74    1
   163    73    68   am
   164    70    67    1
   165    50    53    1
   166    50    51    1
   167    53    54    1
   168    67    68    1
   169    68    69    2
   170    54    55   ar
   171    54    56   ar
   172    55    57   ar
   173    56    58   ar
   174    57    59   ar
   175    58    59   ar
   176    59    60    1
