@<TRIPOS>MOLECULE
tmp/2zimA00.pdb
 242 229 0 0 0
SMALL
GASTEIGER

@<TRIPOS>ATOM
      1  N          9.4760   40.1680   45.4390 N.3    90  LEU90      -0.1245
      2  CA        10.5300   40.6750   44.5740 C.3    90  LEU90       0.1561
      3  C         11.4990   41.4910   45.4550 C.2    90  LEU90       0.2260
      4  O         12.6770   41.6540   45.1230 O.2    90  LEU90      -0.2867
      5  CB         9.9670   41.5700   43.4600 C.3    90  LEU90       0.0270
      6  CG        10.5680   41.5060   42.0390 C.3    90  LEU90       0.0019
      7  CD1        9.8470   42.4660   41.0950 C.3    90  LEU90       0.0001
      8  CD2       12.1020   41.6690   41.9040 C.3    90  LEU90       0.0001
      9  N         15.1190   45.2470   37.0610 N.3   106  MET106     -0.1245
     10  CA        14.2800   45.4450   35.8690 C.3   106  MET106      0.1570
     11  C         14.6770   46.7830   35.2610 C.2   106  MET106      0.2261
     12  O         15.4040   47.5400   35.8950 O.2   106  MET106     -0.2867
     13  CB        12.7760   45.4380   36.2270 C.3   106  MET106      0.0387
     14  CG        12.3660   46.5930   37.1790 C.3   106  MET106      0.0595
     15  SD        10.6350   46.4430   37.5720 S.3   106  MET106     -0.1393
     16  CE        10.5540   45.0340   38.6550 C.3   106  MET106      0.0692
     17  N         12.3820   49.0140   34.0320 N.3   108  ALA108     -0.1245
     18  CA        11.2010   49.9190   34.1270 C.3   108  ALA108      0.1562
     19  C         11.3910   51.2560   34.8110 C.2   108  ALA108      0.2260
     20  O         10.9950   52.2830   34.2600 O.2   108  ALA108     -0.2867
     21  CB        10.0330   49.1650   34.7800 C.3   108  ALA108      0.0290
     22  N         13.2980   53.5820   32.4730 N.3   111  LEU111     -0.1231
     23  CA        12.5490   53.8410   31.2330 C.3   111  LEU111      0.1693
     24  C         11.3070   54.7730   31.4780 C.2   111  LEU111      0.2592
     25  O         11.0190   55.6120   30.6620 O.2   111  LEU111     -0.2718
     26  CB        12.1640   52.5630   30.5100 C.3   111  LEU111      0.0284
     27  CG        13.3290   51.6920   29.9700 C.3   111  LEU111      0.0019
     28  CD1       12.7890   50.4120   29.3940 C.3   111  LEU111      0.0001
     29  CD2       14.2820   52.3590   28.9780 C.3   111  LEU111      0.0001
     30  N         10.6520   54.6370   32.6300 N.am  112  TYR112     -0.1976
     31  CA         9.6540   55.6000   33.1150 C.3   112  TYR112      0.1639
     32  C         10.2590   56.9800   33.0710 C.2   112  TYR112      0.2290
     33  O          9.6850   57.8790   32.4670 O.2   112  TYR112     -0.2864
     34  CB         9.2620   55.2530   34.5480 C.3   112  TYR112      0.0560
     35  CG         7.9340   54.5580   34.6980 C.ar  112  TYR112     -0.0198
     36  CD1        6.8060   54.9510   33.9520 C.ar  112  TYR112     -0.0009
     37  CD2        7.7800   53.5430   35.6460 C.ar  112  TYR112     -0.0009
     38  CE1        5.5480   54.3140   34.1340 C.ar  112  TYR112      0.0417
     39  CE2        6.5640   52.9060   35.8390 C.ar  112  TYR112      0.0417
     40  CZ         5.4410   53.2990   35.1100 C.ar  112  TYR112      0.1957
     41  OH         4.2380   52.6450   35.3780 O.3   112  TYR112     -0.2866
     42  N         10.8350   58.0970   29.3400 N.3   115  LEU115     -0.1245
     43  CA         9.4990   58.4190   28.7990 C.3   115  LEU115      0.1561
     44  C          9.0700   59.8440   29.2030 C.2   115  LEU115      0.2260
     45  O          8.8170   60.6540   28.3460 O.2   115  LEU115     -0.2867
     46  CB         8.4410   57.3700   29.2140 C.3   115  LEU115      0.0270
     47  CG         8.4940   55.9680   28.5350 C.3   115  LEU115      0.0019
     48  CD1        7.3600   55.0850   28.9800 C.3   115  LEU115      0.0001
     49  CD2        8.4800   56.0660   26.9710 C.3   115  LEU115      0.0001
     50  N         18.5780   39.6810   40.1360 N.3   136  ARG136     -0.1245
     51  CA        17.6010   39.2270   41.1370 C.3   136  ARG136      0.1563
     52  C         18.2070   38.0380   41.9180 C.2   136  ARG136      0.2260
     53  O         18.5880   37.0650   41.3000 O.2   136  ARG136     -0.2867
     54  CB        16.2970   38.7860   40.4480 C.3   136  ARG136      0.0307
     55  CG        15.5080   39.9400   39.8390 C.3   136  ARG136      0.0489
     56  CD        14.2860   39.4510   39.0870 C.3   136  ARG136      0.2205
     57  NE        13.8310   40.4780   38.1650 N.pl3 136  ARG136     -0.0865
     58  CZ        12.6660   40.4810   37.5290 C.cat 136  ARG136      0.5346
     59  NH1       11.7620   39.5160   37.7570 N.pl3 136  ARG136      0.1354
     60  NH2       12.4200   41.4670   36.6750 N.pl3 136  ARG136      0.1354
     61  N         17.9920   34.6720   43.5190 N.3   138  GLU138     -0.1245
     62  CA        17.0520   33.6540   42.9950 C.3   138  GLU138      0.1567
     63  C         17.3710   32.2940   43.6380 C.2   138  GLU138      0.2260
     64  O         18.5520   31.9150   43.7400 O.2   138  GLU138     -0.2867
     65  CB        17.1280   33.5250   41.4350 C.3   138  GLU138      0.0388
     66  CG        16.6830   34.7490   40.5940 C.3   138  GLU138      0.1160
     67  CD        15.1510   34.8610   40.4240 C.2   138  GLU138      0.3649
     68  OE1       14.4430   33.8700   40.6980 O.co2 138  GLU138     -0.2457
     69  OE2       14.6260   35.9330   40.0070 O.co2 138  GLU138     -0.2457
     70  N         15.5830   27.7830   35.0970 N.3   143  GLU143     -0.1231
     71  CA        15.1310   28.8950   34.2320 C.3   143  GLU143      0.1699
     72  C         15.5040   30.2800   34.8050 C.2   143  GLU143      0.2592
     73  O         15.2370   31.2760   34.1770 O.2   143  GLU143     -0.2718
     74  CB        13.6220   28.8370   33.9700 C.3   143  GLU143      0.0402
     75  CG        13.0240   27.4600   33.9160 C.3   143  GLU143      0.1161
     76  CD        13.4110   26.7140   32.6750 C.2   143  GLU143      0.3649
     77  OE1       14.5550   26.9170   32.2160 O.co2 143  GLU143     -0.2457
     78  OE2       12.5590   25.9680   32.1330 O.co2 143  GLU143     -0.2457
     79  N         16.1160   30.3100   35.9930 N.am  144  HIS144     -0.1962
     80  CA        16.4930   31.5500   36.6790 C.3   144  HIS144      0.1787
     81  C         17.9960   31.7790   36.8740 C.2   144  HIS144      0.2620
     82  O         18.7370   30.8590   37.2690 O.2   144  HIS144     -0.2715
     83  CB        15.7780   31.6470   38.0160 C.3   144  HIS144      0.0785
     84  CG        14.2920   31.7900   37.8740 C.ar  144  HIS144      0.0821
     85  ND1       13.4630   30.7160   37.6240 N.ar  144  HIS144     -0.2267
     86  CD2       13.4920   32.8870   37.9060 C.ar  144  HIS144      0.1154
     87  CE1       12.2140   31.1420   37.5400 C.ar  144  HIS144      0.1986
     88  NE2       12.2070   32.4570   37.6910 N.ar  144  HIS144     -0.2212
     89  N         18.4280   33.0090   36.5710 N.am  145  LEU145     -0.1977
     90  CA        19.7750   33.4500   36.7980 C.3   145  LEU145      0.1596
     91  C         19.7200   34.6120   37.7560 C.2   145  LEU145      0.2287
     92  O         18.7650   35.3820   37.7490 O.2   145  LEU145     -0.2864
     93  CB        20.4160   33.9200   35.4760 C.3   145  LEU145      0.0297
     94  CG        20.5980   32.8620   34.3880 C.3   145  LEU145      0.0022
     95  CD1       20.8660   33.4970   32.9820 C.3   145  LEU145      0.0001
     96  CD2       21.6960   31.7960   34.7950 C.3   145  LEU145      0.0001
     97  N         21.2380   38.4150   34.7900 N.3   148  PHE148     -0.1241
     98  CA        20.6180   38.1690   33.4950 C.3   148  PHE148      0.1605
     99  C         20.5780   39.4520   32.6780 C.2   148  PHE148      0.2264
    100  O         21.1100   40.4610   33.1070 O.2   148  PHE148     -0.2867
    101  CB        19.2340   37.4890   33.6450 C.3   148  PHE148      0.0534
    102  CG        18.1350   38.3760   34.2660 C.ar  148  PHE148     -0.0203
    103  CD1       18.0410   38.5350   35.6620 C.ar  148  PHE148     -0.0042
    104  CD2       17.1510   38.9690   33.4490 C.ar  148  PHE148     -0.0042
    105  CE1       17.0450   39.3500   36.2500 C.ar  148  PHE148     -0.0003
    106  CE2       16.1360   39.7590   34.0130 C.ar  148  PHE148     -0.0003
    107  CZ        16.0670   39.9510   35.4140 C.ar  148  PHE148     -0.0000
    108  N         18.0200   41.7460   30.3040 N.3   150  MET150     -0.1245
    109  CA        16.6530   41.9780   29.8610 C.3   150  MET150      0.1570
    110  C         16.6170   42.9420   28.6930 C.2   150  MET150      0.2261
    111  O         17.4110   43.8850   28.6230 O.2   150  MET150     -0.2867
    112  CB        15.7800   42.5290   30.9900 C.3   150  MET150      0.0387
    113  CG        14.2720   42.1210   30.8400 C.3   150  MET150      0.0595
    114  SD        13.1990   43.1130   31.8650 S.3   150  MET150     -0.1393
    115  CE        13.5690   42.4310   33.4940 C.3   150  MET150      0.0692
    116  N         13.7300   45.4950   27.3500 N.3   152  ASN152     -0.1225
    117  CA        12.4230   46.1070   27.5960 C.3   152  ASN152      0.1785
    118  C         12.2230   47.1430   26.4860 C.2   152  ASN152      0.2597
    119  O         12.9770   48.1230   26.4260 O.2   152  ASN152     -0.2718
    120  CB        12.4460   46.7750   28.9890 C.3   152  ASN152      0.1169
    121  CG        11.0510   47.2470   29.5420 C.2   152  ASN152      0.2627
    122  OD1       10.9360   47.4360   30.7410 O.2   152  ASN152     -0.2716
    123  ND2       10.0490   47.4770   28.6840 N.am  152  ASN152     -0.0877
    124  N         11.2290   46.9250   25.6120 N.am  153  PHE153     -0.1962
    125  CA        10.7740   47.9880   24.6850 C.3   153  PHE153      0.1771
    126  C          9.4520   48.6050   25.1930 C.2   153  PHE153      0.2619
    127  O          8.6970   47.9620   25.9330 O.2   153  PHE153     -0.2715
    128  CB        10.6200   47.4890   23.2450 C.3   153  PHE153      0.0574
    129  CG         9.5200   46.4510   23.0500 C.ar  153  PHE153     -0.0200
    130  CD1        9.7940   45.0860   23.1710 C.ar  153  PHE153     -0.0042
    131  CD2        8.2180   46.8390   22.7350 C.ar  153  PHE153     -0.0042
    132  CE1        8.8140   44.1460   23.0010 C.ar  153  PHE153     -0.0003
    133  CE2        7.2100   45.8710   22.5780 C.ar  153  PHE153     -0.0003
    134  CZ         7.5120   44.5370   22.6920 C.ar  153  PHE153     -0.0000
    135  N          9.1800   49.8460   24.7920 N.am  154  CYS154     -0.1968
    136  CA         7.9040   50.4580   25.1510 C.3   154  CYS154      0.1712
    137  C          7.5570   51.6170   24.2510 C.2   154  CYS154      0.2296
    138  O          8.4250   52.2280   23.6090 O.2   154  CYS154     -0.2864
    139  CB         7.8340   50.8910   26.6270 C.3   154  CYS154      0.0983
    140  SG         9.0930   52.0760   27.1120 S.3   154  CYS154     -0.0798
    141  N          2.3670   45.3160   38.2820 N.3   190  TYR190     -0.1241
    142  CA         1.7200   45.8550   37.0600 C.3   190  TYR190      0.1605
    143  C          0.1960   45.7630   36.8600 C.2   190  TYR190      0.2264
    144  O         -0.4190   46.7040   36.3630 O.2   190  TYR190     -0.2867
    145  CB         2.4150   45.3070   35.8020 C.3   190  TYR190      0.0534
    146  CG         3.7500   45.9620   35.5330 C.ar  190  TYR190     -0.0201
    147  CD1        3.8170   47.2650   35.0110 C.ar  190  TYR190     -0.0009
    148  CD2        4.9430   45.2960   35.8080 C.ar  190  TYR190     -0.0009
    149  CE1        5.0310   47.8870   34.7850 C.ar  190  TYR190      0.0417
    150  CE2        6.1650   45.9150   35.5820 C.ar  190  TYR190      0.0417
    151  CZ         6.1960   47.2010   35.0670 C.ar  190  TYR190      0.1957
    152  OH         7.3840   47.7940   34.8270 O.3   190  TYR190     -0.2866
    153  N          8.3860   31.1680   30.7100 N.3   202  GLU202     -0.1231
    154  CA         8.0720   32.5790   30.4800 C.3   202  GLU202      0.1699
    155  C          9.2170   33.3310   29.7290 C.2   202  GLU202      0.2592
    156  O         10.3080   33.5490   30.2700 O.2   202  GLU202     -0.2718
    157  CB         7.7110   33.2840   31.7660 C.3   202  GLU202      0.0402
    158  CG         7.2080   34.7220   31.5060 C.3   202  GLU202      0.1161
    159  CD         7.2660   35.6010   32.7420 C.2   202  GLU202      0.3649
    160  OE1        6.4100   35.3680   33.6350 O.co2 202  GLU202     -0.2457
    161  OE2        8.1500   36.4990   32.8490 O.co2 202  GLU202     -0.2457
    162  N          8.9450   33.7220   28.4840 N.am  203  LEU203     -0.1966
    163  CA         9.8690   34.5400   27.7240 C.3   203  LEU203      0.1728
    164  C          9.7180   36.0040   28.0860 C.2   203  LEU203      0.2617
    165  O         10.7070   36.7200   28.1700 O.2   203  LEU203     -0.2715
    166  CB         9.6640   34.3780   26.2180 C.3   203  LEU203      0.0311
    167  CG         9.8880   32.9930   25.6530 C.3   203  LEU203      0.0022
    168  CD1        9.5750   32.9720   24.1590 C.3   203  LEU203      0.0001
    169  CD2       11.2820   32.4510   25.9960 C.3   203  LEU203      0.0001
    170  N          8.4810   36.4430   28.2930 N.am  204  SER204     -0.1936
    171  CA         8.2030   37.8530   28.5150 C.3   204  SER204      0.2055
    172  C          6.9740   38.0690   29.3880 C.2   204  SER204      0.2643
    173  O          6.0380   37.2620   29.3500 O.2   204  SER204     -0.2714
    174  CB         7.9800   38.5820   27.1940 C.3   204  SER204      0.2130
    175  OG         7.6270   39.9640   27.4030 O.3   204  SER204     -0.2179
    176  N          7.0190   39.1600   30.1720 N.am  205  SER205     -0.1949
    177  CA         5.8380   39.8590   30.6540 C.3   205  SER205      0.1924
    178  C          5.6580   41.1550   29.9100 C.2   205  SER205      0.2314
    179  O          6.6270   41.9340   29.7460 O.2   205  SER205     -0.2863
    180  CB         5.9780   40.1750   32.1210 C.3   205  SER205      0.2116
    181  OG         5.6030   39.0080   32.8310 O.3   205  SER205     -0.2180
    182  N          2.5940   44.4830   29.2260 N.3   207  VAL207     -0.1245
    183  CA         1.5510   45.3040   29.8510 C.3   207  VAL207      0.1561
    184  C          1.0060   46.3700   28.8650 C.2   207  VAL207      0.2260
    185  O          1.7700   47.0140   28.1310 O.2   207  VAL207     -0.2867
    186  CB         2.0990   45.9810   31.1240 C.3   207  VAL207      0.0252
    187  CG1        1.0150   46.8020   31.8030 C.3   207  VAL207      0.0019
    188  CG2        2.7200   44.9150   32.1000 C.3   207  VAL207      0.0019
    189  N          0.3830   53.8040   27.3100 N.3   223  TRP223     -0.1241
    190  CA         1.6530   53.1790   26.9640 C.3   223  TRP223      0.1605
    191  C          1.4410   51.7140   26.8030 C.2   223  TRP223      0.2264
    192  O          0.4390   51.1600   27.2740 O.2   223  TRP223     -0.2867
    193  CB         2.7260   53.5100   27.9800 C.3   223  TRP223      0.0550
    194  CG         2.4950   52.9630   29.3550 C.ar  223  TRP223      0.0003
    195  CD1        1.8980   53.6140   30.4020 C.ar  223  TRP223      0.0946
    196  CD2        2.8920   51.6660   29.8530 C.ar  223  TRP223      0.0152
    197  NE1        1.8930   52.8150   31.5060 N.ar  223  TRP223     -0.2442
    198  CE2        2.5020   51.6100   31.2030 C.ar  223  TRP223      0.0810
    199  CE3        3.5480   50.5600   29.2870 C.ar  223  TRP223      0.0012
    200  CZ2        2.7440   50.4660   32.0190 C.ar  223  TRP223      0.0191
    201  CZ3        3.7770   49.4130   30.0830 C.ar  223  TRP223      0.0001
    202  CH2        3.3840   49.3850   31.4390 C.ar  223  TRP223      0.0015
    203  N          4.1560   47.9790   26.6160 N.3   225  GLY225     -0.1225
    204  CA         5.5790   47.5750   26.7440 C.3   225  GLY225      0.1811
    205  C          5.7610   46.1340   27.1180 C.2   225  GLY225      0.2280
    206  O          4.8170   45.5070   27.6000 O.2   225  GLY225     -0.2866
    207  N          9.0990   43.1270   28.5450 N.3   227  GLY227     -0.1225
    208  CA        10.4660   42.7800   28.9320 C.3   227  GLY227      0.1811
    209  C         10.7190   41.3220   28.6700 C.2   227  GLY227      0.2280
    210  O          9.8890   40.4710   29.0200 O.2   227  GLY227     -0.2866
    211  N         13.8240   38.1340   28.6430 N.3   229  GLY229     -0.1225
    212  CA        15.1290   37.6950   29.1280 C.3   229  GLY229      0.1811
    213  C         15.8990   37.2050   27.9160 C.2   229  GLY229      0.2280
    214  O         15.4740   36.2830   27.2560 O.2   229  GLY229     -0.2866
    215  N         18.7700   35.5470   27.9310 N.3   231  GLU231     -0.1231
    216  CA        19.2130   34.1340   28.2120 C.3   231  GLU231      0.1699
    217  C         18.0990   33.1040   28.0120 C.2   231  GLU231      0.2592
    218  O         18.3370   32.0410   27.4310 O.2   231  GLU231     -0.2718
    219  CB        19.8110   34.0380   29.6130 C.3   231  GLU231      0.0402
    220  CG        21.1080   34.9210   29.8060 C.3   231  GLU231      0.1161
    221  CD        20.8040   36.3690   30.2280 C.2   231  GLU231      0.3649
    222  OE1       19.5950   36.7750   30.3630 O.co2 231  GLU231     -0.2457
    223  OE2       21.7840   37.1040   30.4380 O.co2 231  GLU231     -0.2457
    224  N         16.8660   33.4360   28.4150 N.am  232  ARG232     -0.1980
    225  CA        15.6800   32.6000   28.0380 C.3   232  ARG232      0.1597
    226  C         15.5380   32.4420   26.5420 C.2   232  ARG232      0.2287
    227  O         15.4010   31.3320   26.0490 O.2   232  ARG232     -0.2864
    228  CB        14.3770   33.1220   28.6440 C.3   232  ARG232      0.0334
    229  CG        14.4660   33.1980   30.1340 C.3   232  ARG232      0.0492
    230  CD        13.2630   32.6560   30.8030 C.3   232  ARG232      0.2205
    231  NE        13.4970   32.5240   32.2300 N.pl3 232  ARG232     -0.0865
    232  CZ        12.6030   32.8530   33.1560 C.cat 232  ARG232      0.5346
    233  NH1       11.4060   33.2960   32.7900 N.pl3 232  ARG232      0.1354
    234  NH2       12.8970   32.7370   34.4510 N.pl3 232  ARG232      0.1354
    235  N         19.5790   26.9100   31.4850 N.3   243  ILE243     -0.1245
    236  CA        19.7890   28.3300   31.2060 C.3   243  ILE243      0.1561
    237  C         21.2040   28.8850   31.5390 C.2   243  ILE243      0.2260
    238  O         21.6420   29.8860   30.9380 O.2   243  ILE243     -0.2867
    239  CB        18.7200   29.2140   31.8990 C.3   243  ILE243      0.0252
    240  CG1       18.7430   30.6420   31.3170 C.3   243  ILE243      0.0019
    241  CG2       18.8860   29.2050   33.4230 C.3   243  ILE243      0.0019
    242  CD1       17.5050   31.5080   31.7810 C.3   243  ILE243      0.0001
@<TRIPOS>BOND
     1   133   134   ar
     2   133   131   ar
     3   134   132   ar
     4   131   129   ar
     5   132   130   ar
     6   129   130   ar
     7   129   128    1
     8   128   125    1
     9   138   137    2
    10   168   167    1
    11   137   136    1
    12   125   126    1
    13   125   124    1
    14   135   136    1
    15   135   126   am
    16   136   139    1
    17   126   127    2
    18   124   118   am
    19   167   169    1
    20   167   166    1
    21   227   226    2
    22   166   163    1
    23   119   118    2
    24   118   117    1
    25   226   225    1
    26   203   204    1
    27   139   140    1
    28   204   205    1
    29   191   190    1
    30   191   192    2
    31   190   189    1
    32   190   193    1
    33    49    47    1
    34   205   206    2
    35   174   175    1
    36   174   171    1
    37   214   213    2
    38   116   117    1
    39   218   217    2
    40   117   120    1
    41   163   164    1
    42   163   162    1
    43   213   212    1
    44   215   216    1
    45   193   194    1
    46   217   216    1
    47   217   224   am
    48   225   224    1
    49   225   228    1
    50   164   165    2
    51   164   170   am
    52   185   184    2
    53   216   219    1
    54   170   171    1
    55    45    44    2
    56   162   155   am
    57   171   172    1
    58    47    48    1
    59    47    46    1
    60   207   208    1
    61   111   110    2
    62   211   212    1
    63   228   229    1
    64   209   208    1
    65   209   210    2
    66   123   121   am
    67   110   109    1
    68    43    44    1
    69    43    46    1
    70    43    42    1
    71   184   183    1
    72    29    27    1
    73   120   121    1
    74   182   183    1
    75   199   196   ar
    76   199   201   ar
    77   173   172    2
    78   194   196   ar
    79   194   195   ar
    80   172   176   am
    81    28    27    1
    82   121   122    2
    83   219   220    1
    84   155   156    2
    85   155   154    1
    86   179   178    2
    87   220   221    1
    88   183   186    1
    89   196   198   ar
    90   109   108    1
    91   109   112    1
    92   178   177    1
    93    27    26    1
    94   201   202   ar
    95   229   230    1
    96   176   177    1
    97   221   222   ar
    98   221   223   ar
    99   195   197   ar
   100   154   153    1
   101   154   157    1
   102    26    23    1
   103   177   180    1
   104    25    24    2
   105   230   231    1
   106   113   112    1
   107   113   114    1
   108   238   237    2
   109   186   187    1
   110   186   188    1
   111   198   197   ar
   112   198   200   ar
   113   236   235    1
   114   236   237    1
   115   236   239    1
   116    23    24    1
   117    23    22    1
   118   240   242    1
   119   240   239    1
   120   202   200   ar
   121    24    30   am
   122   158   157    1
   123   158   159    1
   124   114   115    1
   125   239   241    1
   126   180   181    1
   127    78    76   ar
   128    77    76   ar
   129   231   232    2
   130    33    32    2
   131    30    31    1
   132    76    75    1
   133    99   100    2
   134    99    98    1
   135   159   161   ar
   136   159   160   ar
   137   233   232    1
   138    95    94    1
   139    32    31    1
   140    31    34    1
   141   232   234    1
   142   104   106   ar
   143   104   102   ar
   144    98   101    1
   145    98    97    1
   146   101   102    1
   147    75    74    1
   148    36    38   ar
   149    36    35   ar
   150    74    71    1
   151   106   107   ar
   152    17    18    1
   153    18    21    1
   154    18    19    1
   155    38    40   ar
   156    73    72    2
   157    71    72    1
   158    71    70    1
   159    20    19    2
   160   102   103   ar
   161    94    96    1
   162    94    93    1
   163    34    35    1
   164    35    37   ar
   165   149   147   ar
   166   149   151   ar
   167    72    79   am
   168   152   151    1
   169   147   146   ar
   170   151   150   ar
   171    40    41    1
   172    40    39   ar
   173    11    10    1
   174    11    12    2
   175   107   105   ar
   176    93    90    1
   177   146   145    1
   178   146   148   ar
   179   150   148   ar
   180    37    39   ar
   181   103   105   ar
   182   145   142    1
   183    10    13    1
   184    10     9    1
   185    79    80    1
   186    13    14    1
   187   144   143    2
   188    89    90    1
   189    89    81   am
   190    60    58    1
   191    80    81    1
   192    80    83    1
   193    90    91    1
   194   143   142    1
   195    81    82    2
   196   142   141    1
   197    14    15    1
   198    58    59    1
   199    58    57    2
   200    87    85   ar
   201    87    88   ar
   202    15    16    1
   203    85    84   ar
   204    88    86   ar
   205    92    91    2
   206    84    86   ar
   207    84    83    1
   208    57    56    1
   209    56    55    1
   210    55    54    1
   211    69    67   ar
   212    50    51    1
   213    67    66    1
   214    67    68   ar
   215    54    51    1
   216    66    65    1
   217     7     6    1
   218    51    52    1
   219    53    52    2
   220    65    62    1
   221     8     6    1
   222     6     5    1
   223    62    61    1
   224    62    63    1
   225     5     2    1
   226    63    64    2
   227     2     1    1
   228     2     3    1
   229     4     3    2
