@<TRIPOS>MOLECULE
tmp/2ziqB01.pdb
 206 208 0 0 0
SMALL
GASTEIGER

@<TRIPOS>ATOM
      1  N         22.4620   -6.1360   18.1610 N.3    43  HIS43      -0.1241
      2  CA        22.3170   -7.4950   17.6380 C.3    43  HIS43       0.1621
      3  C         21.5910   -7.5350   16.2960 C.2    43  HIS43       0.2264
      4  O         21.6630   -8.5740   15.6220 O.2    43  HIS43      -0.2867
      5  CB        21.6410   -8.3950   18.6760 C.3    43  HIS43       0.0745
      6  CG        20.1480   -8.3190   18.7230 C.ar   43  HIS43       0.0817
      7  ND1       19.5330   -7.5650   19.6860 N.ar   43  HIS43      -0.2268
      8  CD2       19.1560   -8.8970   18.0060 C.ar   43  HIS43       0.1154
      9  CE1       18.2190   -7.6610   19.5430 C.ar   43  HIS43       0.1986
     10  NE2       17.9630   -8.4640   18.5100 N.ar   43  HIS43      -0.2212
     11  N         25.9000  -10.2370   15.1380 N.3    47  TYR47      -0.1241
     12  CA        25.6240  -11.3050   16.0820 C.3    47  TYR47       0.1605
     13  C         26.2810  -12.5890   15.5350 C.2    47  TYR47       0.2264
     14  O         25.6730  -13.4490   14.9060 O.2    47  TYR47      -0.2867
     15  CB        24.1580  -11.5470   16.4080 C.3    47  TYR47       0.0534
     16  CG        23.9380  -12.4490   17.6000 C.ar   47  TYR47      -0.0201
     17  CD1       24.3100  -12.0470   18.8910 C.ar   47  TYR47      -0.0009
     18  CD2       23.3690  -13.7040   17.4070 C.ar   47  TYR47      -0.0009
     19  CE1       24.0840  -12.9280   19.9380 C.ar   47  TYR47       0.0417
     20  CE2       23.1520  -14.5640   18.4660 C.ar   47  TYR47       0.0417
     21  CZ        23.5200  -14.1540   19.7340 C.ar   47  TYR47       0.1957
     22  OH        23.3040  -15.0230   20.7830 O.3    47  TYR47      -0.2866
     23  N         25.1200  -16.2570   15.1150 N.3    50  TRP50      -0.1241
     24  CA        24.1740  -16.5260   14.0180 C.3    50  TRP50       0.1605
     25  C         24.7590  -16.0880   12.6930 C.2    50  TRP50       0.2264
     26  O         24.0540  -15.9660   11.6860 O.2    50  TRP50      -0.2867
     27  CB        22.8390  -15.8020   14.2360 C.3    50  TRP50       0.0550
     28  CG        22.0650  -16.3630   15.3960 C.ar   50  TRP50       0.0003
     29  CD1       22.3900  -17.4820   16.1200 C.ar   50  TRP50       0.0946
     30  CD2       20.8510  -15.8570   15.9720 C.ar   50  TRP50       0.0152
     31  NE1       21.4510  -17.6960   17.1090 N.ar   50  TRP50      -0.2442
     32  CE2       20.4950  -16.7120   17.0390 C.ar   50  TRP50       0.0810
     33  CE3       20.0180  -14.7640   15.7020 C.ar   50  TRP50       0.0012
     34  CZ2       19.3590  -16.5160   17.8260 C.ar   50  TRP50       0.0191
     35  CZ3       18.8930  -14.5760   16.4890 C.ar   50  TRP50       0.0001
     36  CH2       18.5630  -15.4360   17.5400 C.ar   50  TRP50       0.0015
     37  N         28.0930   -9.4320   22.8760 N.3    92  TRP92      -0.1241
     38  CA        27.3270  -10.4480   22.1690 C.3    92  TRP92       0.1605
     39  C         27.7090  -11.8510   22.6490 C.2    92  TRP92       0.2264
     40  O         26.9940  -12.8080   22.3420 O.2    92  TRP92      -0.2867
     41  CB        27.5320  -10.3970   20.6600 C.3    92  TRP92       0.0550
     42  CG        28.9560  -10.3200   20.2110 C.ar   92  TRP92       0.0003
     43  CD1       29.6670   -9.1750   20.0110 C.ar   92  TRP92       0.0946
     44  CD2       29.8470  -11.4160   19.9120 C.ar   92  TRP92       0.0152
     45  NE1       30.9580   -9.4820   19.5960 N.ar   92  TRP92      -0.2442
     46  CE2       31.0760  -10.8460   19.5320 C.ar   92  TRP92       0.0810
     47  CE3       29.7370  -12.7970   19.9160 C.ar   92  TRP92       0.0012
     48  CZ2       32.2010  -11.5970   19.1610 C.ar   92  TRP92       0.0191
     49  CZ3       30.8520  -13.5430   19.5510 C.ar   92  TRP92       0.0001
     50  CH2       32.0630  -12.9610   19.1780 C.ar   92  TRP92       0.0015
     51  N         27.9930  -13.0340   25.7730 N.3    94  GLU94      -0.1231
     52  CA        27.2970  -13.5420   26.9500 C.3    94  GLU94       0.1699
     53  C         25.8270  -13.1860   27.0540 C.2    94  GLU94       0.2592
     54  O         24.9180  -14.0170   26.9770 O.2    94  GLU94      -0.2718
     55  CB        27.9850  -12.9950   28.2030 C.3    94  GLU94       0.0402
     56  CG        27.4460  -13.7170   29.4460 C.3    94  GLU94       0.1161
     57  CD        27.8430  -12.9590   30.7000 C.2    94  GLU94       0.3649
     58  OE1       28.7620  -12.1210   30.5560 O.co2  94  GLU94      -0.2457
     59  OE2       27.2370  -13.2210   31.7630 O.co2  94  GLU94      -0.2457
     60  N         25.5590  -11.8900   27.2650 N.am   95  ASN95      -0.1960
     61  CA        24.1770  -11.5600   27.6320 C.3    95  ASN95       0.1819
     62  C         23.6120  -10.3380   26.9210 C.2    95  ASN95       0.2621
     63  O         22.6070   -9.7800   27.3810 O.2    95  ASN95      -0.2715
     64  CB        24.1650  -11.3070   29.1390 C.3    95  ASN95       0.1195
     65  CG        25.1310  -10.2230   29.5350 C.2    95  ASN95       0.2630
     66  OD1       25.8660   -9.6260   28.7400 O.2    95  ASN95      -0.2716
     67  ND2       25.0990   -9.8940   30.8410 N.am   95  ASN95      -0.0877
     68  N         24.2460   -9.9240   25.8420 N.am   96  LEU96      -0.1977
     69  CA        23.7790   -8.7600   25.0660 C.3    96  LEU96       0.1596
     70  C         23.8660   -7.4790   25.8700 C.2    96  LEU96       0.2287
     71  O         23.1260   -6.5070   25.6280 O.2    96  LEU96      -0.2864
     72  CB        22.3370   -9.0100   24.5970 C.3    96  LEU96       0.0297
     73  CG        22.0790   -9.4130   23.1510 C.3    96  LEU96       0.0022
     74  CD1       23.2110  -10.2090   22.5210 C.3    96  LEU96       0.0001
     75  CD2       20.7620  -10.1930   23.0410 C.3    96  LEU96       0.0001
     76  N         20.1710  -15.9890   32.8060 N.3   172  ILE172     -0.1245
     77  CA        21.0970  -15.0250   32.2290 C.3   172  ILE172      0.1561
     78  C         21.5250  -13.9590   33.2300 C.2   172  ILE172      0.2260
     79  O         20.7200  -13.5370   34.0740 O.2   172  ILE172     -0.2867
     80  CB        20.4400  -14.3330   31.0070 C.3   172  ILE172      0.0252
     81  CG1       20.0130  -15.3110   29.9260 C.3   172  ILE172      0.0019
     82  CG2       21.3130  -13.2400   30.3900 C.3   172  ILE172      0.0019
     83  CD1       21.1270  -16.1810   29.4010 C.3   172  ILE172      0.0001
     84  N          3.8910   -8.9390   24.8870 N.3   192  ASP192     -0.1225
     85  CA         5.3490   -9.0100   24.8710 C.3   192  ASP192      0.1805
     86  C          5.8370   -8.6030   23.4970 C.2   192  ASP192      0.2598
     87  O          5.0680   -8.6120   22.5520 O.2   192  ASP192     -0.2718
     88  CB         5.8840  -10.4250   25.1590 C.3   192  ASP192      0.1424
     89  CG         7.3390  -10.5390   25.5190 C.2   192  ASP192      0.3668
     90  OD1        8.0530   -9.5240   25.6770 O.co2 192  ASP192     -0.2456
     91  OD2        7.8380  -11.6940   25.6830 O.co2 192  ASP192     -0.2456
     92  N          7.1320   -8.2890   23.4190 N.am  193  ALA193     -0.1966
     93  CA         7.7830   -8.1630   22.1320 C.3   193  ALA193      0.1728
     94  C          8.1850   -9.5650   21.6650 C.2   193  ALA193      0.2616
     95  O          8.1310  -10.5110   22.4260 O.2   193  ALA193     -0.2715
     96  CB         9.0240   -7.2760   22.1880 C.3   193  ALA193      0.0334
     97  N          8.5890   -9.6650   20.4110 N.am  194  CYS194     -0.1954
     98  CA         9.0070  -11.0010   19.9280 C.3   194  CYS194      0.1843
     99  C         10.0230  -10.8230   18.8160 C.2   194  CYS194      0.2625
    100  O         10.4000   -9.7000   18.4770 O.2   194  CYS194     -0.2714
    101  CB         7.7750  -11.7850   19.4930 C.3   194  CYS194      0.0997
    102  SG         7.9800  -13.5890   19.3360 S.3   194  CYS194     -0.0797
    103  N         10.4580  -11.9360   18.2200 N.am  195  GLU195     -0.1977
    104  CA        11.3470  -11.8560   17.0730 C.3   195  GLU195      0.1602
    105  C         10.8380  -10.9130   15.9960 C.2   195  GLU195      0.2287
    106  O          9.6510  -10.9610   15.6680 O.2   195  GLU195     -0.2864
    107  CB        11.4890  -13.2820   16.4760 C.3   195  GLU195      0.0415
    108  CG        12.1950  -13.2650   15.1390 C.3   195  GLU195      0.1163
    109  CD        12.3710  -14.5870   14.4320 C.2   195  GLU195      0.3649
    110  OE1       11.5990  -14.8710   13.4870 O.co2 195  GLU195     -0.2457
    111  OE2       13.2910  -15.3600   14.7850 O.co2 195  GLU195     -0.2457
    112  N         12.9290   -6.6580   17.6320 N.3   198  SER198     -0.1217
    113  CA        14.2860   -6.2780   17.9250 C.3   198  SER198      0.1889
    114  C         14.6290   -4.8820   17.4130 C.2   198  SER198      0.2288
    115  O         14.3570   -4.5880   16.2680 O.2   198  SER198     -0.2866
    116  CB        15.3190   -7.2170   17.2490 C.3   198  SER198      0.2089
    117  OG        15.3010   -8.4860   17.8740 O.3   198  SER198     -0.2183
    118  N         14.1190   -2.7770   22.2860 N.3   218  VAL218     -0.1231
    119  CA        13.8230   -4.2190   22.3850 C.3   218  VAL218      0.1692
    120  C         15.0800   -5.0310   22.2040 C.2   218  VAL218      0.2593
    121  O         15.7120   -4.8910   21.1540 O.2   218  VAL218     -0.2718
    122  CB        12.8330   -4.6030   21.2700 C.3   218  VAL218      0.0266
    123  CG1       12.5800   -6.1140   21.3350 C.3   218  VAL218      0.0020
    124  CG2       11.5290   -3.8200   21.3770 C.3   218  VAL218      0.0020
    125  N         15.4610   -5.8450   23.1850 N.am  219  SER219     -0.1938
    126  CA        16.7710   -6.5090   23.0650 C.3   219  SER219      0.2055
    127  C         16.6270   -8.0200   23.0800 C.2   219  SER219      0.2643
    128  O         17.0470   -8.7020   22.1400 O.2   219  SER219     -0.2714
    129  CB        17.6640   -6.0010   24.1990 C.3   219  SER219      0.2130
    130  OG        18.9150   -6.6460   24.2720 O.3   219  SER219     -0.2179
    131  N         16.0720   -8.6310   24.1220 N.am  220  TRP220     -0.1959
    132  CA        16.0750  -10.0920   24.1730 C.3   220  TRP220      0.1771
    133  C         14.9770  -10.5930   25.0850 C.2   220  TRP220      0.2620
    134  O         14.3650   -9.8560   25.8560 O.2   220  TRP220     -0.2715
    135  CB        17.4470  -10.6330   24.5900 C.3   220  TRP220      0.0590
    136  CG        17.9080  -10.3200   25.9730 C.ar  220  TRP220      0.0006
    137  CD1       18.5920   -9.2130   26.3860 C.ar  220  TRP220      0.0946
    138  CD2       17.7340  -11.1280   27.1590 C.ar  220  TRP220      0.0152
    139  NE1       18.8520   -9.2650   27.7370 N.ar  220  TRP220     -0.2442
    140  CE2       18.3330  -10.4350   28.2230 C.ar  220  TRP220      0.0810
    141  CE3       17.1260  -12.3550   27.4200 C.ar  220  TRP220      0.0012
    142  CZ2       18.3690  -10.9070   29.5470 C.ar  220  TRP220      0.0191
    143  CZ3       17.1620  -12.8310   28.7370 C.ar  220  TRP220      0.0001
    144  CH2       17.7690  -12.1160   29.7730 C.ar  220  TRP220      0.0015
    145  N         14.7240  -11.8910   24.9420 N.am  221  GLY221     -0.1940
    146  CA        13.6180  -12.5000   25.6810 C.3   221  GLY221      0.2014
    147  C         13.7320  -14.0140   25.4310 C.2   221  GLY221      0.2639
    148  O         14.3590  -14.4130   24.4660 O.2   221  GLY221     -0.2714
    149  N         13.1490  -14.8100   26.3010 N.am  222  GLU222     -0.1963
    150  CA        13.2250  -16.2720   26.1570 C.3   222  GLU222      0.1733
    151  C         11.8060  -16.7100   25.8140 C.2   222  GLU222      0.2617
    152  O         10.9240  -16.6600   26.6690 O.2   222  GLU222     -0.2715
    153  CB        13.7590  -16.9280   27.4170 C.3   222  GLU222      0.0429
    154  CG        15.1530  -16.4790   27.8110 C.3   222  GLU222      0.1163
    155  CD        15.5760  -16.8970   29.2030 C.2   222  GLU222      0.3649
    156  OE1       15.3200  -16.1610   30.1690 O.co2 222  GLU222     -0.2457
    157  OE2       16.1910  -17.9880   29.3140 O.co2 222  GLU222     -0.2457
    158  N         11.6520  -17.0850   24.5530 N.am  223  GLY223     -0.1940
    159  CA        10.3330  -17.3080   23.9560 C.3   223  GLY223      0.2014
    160  C          9.6580  -15.9370   23.8760 C.2   223  GLY223      0.2639
    161  O         10.3880  -14.9390   23.9230 O.2   223  GLY223     -0.2714
    162  N          8.3440  -15.8990   23.7840 N.am  224  CYS224     -0.1967
    163  CA         7.6130  -14.6300   23.7350 C.3   224  CYS224      0.1712
    164  C          6.2850  -14.7600   24.4850 C.2   224  CYS224      0.2296
    165  O          5.5110  -15.6830   24.2150 O.2   224  CYS224     -0.2864
    166  CB         7.3190  -14.1700   22.3150 C.3   224  CYS224      0.0983
    167  SG         8.7110  -14.1130   21.1800 S.3   224  CYS224     -0.0798
    168  N          9.8970  -12.3020   31.0390 N.3   230  TYR230     -0.1227
    169  CA         9.7290  -10.8690   30.8180 C.3   230  TYR230      0.1736
    170  C         10.5980  -10.4690   29.6350 C.2   230  TYR230      0.2596
    171  O         11.6300  -11.1050   29.3960 O.2   230  TYR230     -0.2718
    172  CB        10.1560  -10.0260   32.0470 C.3   230  TYR230      0.0548
    173  CG         9.2390  -10.4440   33.1920 C.ar  230  TYR230     -0.0200
    174  CD1        9.6530  -11.4610   34.0510 C.ar  230  TYR230     -0.0009
    175  CD2        7.9960   -9.8760   33.3490 C.ar  230  TYR230     -0.0009
    176  CE1        8.7990  -11.8400   35.0710 C.ar  230  TYR230      0.0417
    177  CE2        7.1260  -10.2540   34.3790 C.ar  230  TYR230      0.0417
    178  CZ         7.5670  -11.2510   35.2220 C.ar  230  TYR230      0.1957
    179  OH         6.7290  -11.6480   36.2540 O.3   230  TYR230     -0.2866
    180  N         10.1900   -9.4180   28.9180 N.am  231  GLY231     -0.1942
    181  CA        11.0710   -8.9880   27.8370 C.3   231  GLY231      0.2014
    182  C         12.1590   -8.0840   28.4010 C.2   231  GLY231      0.2639
    183  O         11.9030   -7.3530   29.3620 O.2   231  GLY231     -0.2714
    184  N         13.3650   -8.1340   27.8290 N.am  232  PHE232     -0.1959
    185  CA        14.4860   -7.2900   28.2680 C.3   232  PHE232      0.1771
    186  C         14.7740   -6.2180   27.2250 C.2   232  PHE232      0.2619
    187  O         14.6580   -6.4430   26.0130 O.2   232  PHE232     -0.2715
    188  CB        15.7440   -8.1320   28.5550 C.3   232  PHE232      0.0574
    189  CG        15.5730   -8.9020   29.8610 C.ar  232  PHE232     -0.0200
    190  CD1       14.8770  -10.0870   29.9070 C.ar  232  PHE232     -0.0042
    191  CD2       16.1280   -8.3880   31.0320 C.ar  232  PHE232     -0.0042
    192  CE1       14.7130  -10.7660   31.1100 C.ar  232  PHE232     -0.0003
    193  CE2       15.9800   -9.0790   32.2410 C.ar  232  PHE232     -0.0003
    194  CZ        15.2880  -10.2680   32.2650 C.ar  232  PHE232     -0.0000
    195  N         15.1380   -5.0540   27.7340 N.am  233  TYR233     -0.1974
    196  CA        15.2970   -3.8190   26.9690 C.3   233  TYR233      0.1639
    197  C         16.6080   -3.1610   27.3230 C.2   233  TYR233      0.2290
    198  O         16.9700   -3.0670   28.4970 O.2   233  TYR233     -0.2864
    199  CB        14.1220   -2.8550   27.2700 C.3   233  TYR233      0.0560
    200  CG        12.7900   -3.5040   26.9250 C.ar  233  TYR233     -0.0198
    201  CD1       12.1000   -4.3290   27.8270 C.ar  233  TYR233     -0.0009
    202  CD2       12.2610   -3.2590   25.6670 C.ar  233  TYR233     -0.0009
    203  CE1       10.8810   -4.9010   27.4530 C.ar  233  TYR233      0.0417
    204  CE2       11.0550   -3.8410   25.3130 C.ar  233  TYR233      0.0417
    205  CZ        10.3690   -4.6500   26.2050 C.ar  233  TYR233      0.1957
    206  OH         9.1780   -5.2020   25.7670 O.3   233  TYR233     -0.2866
@<TRIPOS>BOND
     1    26    25    2
     2    25    24    1
     3   110   109   ar
     4    24    27    1
     5    24    23    1
     6    27    28    1
     7   109   111   ar
     8   109   108    1
     9    14    13    2
    10    11    12    1
    11   108   107    1
    12    28    30   ar
    13    28    29   ar
    14    13    12    1
    15     4     3    2
    16   106   105    2
    17    33    30   ar
    18    33    35   ar
    19    30    32   ar
    20   105   104    1
    21    12    15    1
    22    29    31   ar
    23   115   114    2
    24     3     2    1
    25    15    16    1
    26   107   104    1
    27    35    36   ar
    28    32    31   ar
    29    32    34   ar
    30   104   103    1
    31   116   117    1
    32   116   113    1
    33    18    16   ar
    34    18    20   ar
    35   114   113    1
    36    36    34   ar
    37    16    17   ar
    38   112   113    1
    39     2     1    1
    40     2     5    1
    41     8    10   ar
    42     8     6   ar
    43   103    99   am
    44    20    21   ar
    45   100    99    2
    46    10     9   ar
    47     5     6    1
    48     6     7   ar
    49    99    98    1
    50    17    19   ar
    51    48    50   ar
    52    48    46   ar
    53    50    49   ar
    54   102   101    1
    55   102   167    1
    56   101    98    1
    57    46    45   ar
    58    46    44   ar
    59     9     7   ar
    60    49    47   ar
    61    45    43   ar
    62    21    19   ar
    63    21    22    1
    64    44    47   ar
    65    44    42   ar
    66    98    97    1
    67    43    42   ar
    68    42    41    1
    69    97    94   am
    70    41    38    1
    71   121   120    2
    72   167   166    1
    73   122   123    1
    74   122   124    1
    75   122   119    1
    76    94    93    1
    77    94    95    2
    78    93    96    1
    79    93    92    1
    80   128   127    2
    81    38    39    1
    82    38    37    1
    83   120   119    1
    84   120   125   am
    85   118   119    1
    86   166   163    1
    87    40    39    2
    88    74    73    1
    89    87    86    2
    90    75    73    1
    91   126   127    1
    92   126   125    1
    93   126   129    1
    94   127   131   am
    95    73    72    1
    96    92    86   am
    97    86    85    1
    98   163   162    1
    99   163   164    1
   100   162   160   am
   101   160   161    2
   102   160   159    1
   103   159   158    1
   104   131   132    1
   105   132   135    1
   106   132   133    1
   107   129   130    1
   108   165   164    2
   109   148   147    2
   110   158   151   am
   111   135   136    1
   112    72    69    1
   113    85    84    1
   114    85    88    1
   115   145   133   am
   116   145   146    1
   117    69    68    1
   118    69    70    1
   119   133   134    2
   120    88    89    1
   121   204   202   ar
   122   204   205   ar
   123   147   146    1
   124   147   149   am
   125    89    90   ar
   126    89    91   ar
   127    71    70    2
   128   202   200   ar
   129   206   205    1
   130    51    52    1
   131   151   150    1
   132   151   152    2
   133    68    62   am
   134   136   137   ar
   135   136   138   ar
   136   187   186    2
   137   150   149    1
   138   150   153    1
   139   205   203   ar
   140   137   139   ar
   141    62    63    2
   142    62    61    1
   143   200   199    1
   144   200   201   ar
   145    52    53    1
   146    52    55    1
   147   196   199    1
   148   196   197    1
   149   196   195    1
   150    54    53    2
   151    53    60   am
   152   138   141   ar
   153   138   140   ar
   154   186   195   am
   155   186   185    1
   156    60    61    1
   157   197   198    2
   158   153   154    1
   159   141   143   ar
   160   203   201   ar
   161    61    64    1
   162   139   140   ar
   163   154   155    1
   164   184   185    1
   165   184   182   am
   166   181   182    1
   167   181   180    1
   168    55    56    1
   169   140   142   ar
   170   185   188    1
   171   182   183    2
   172   188   189    1
   173   143   144   ar
   174    66    65    2
   175   180   170   am
   176    64    65    1
   177   155   157   ar
   178   155   156   ar
   179   171   170    2
   180    83    81    1
   181    56    57    1
   182    65    67   am
   183   142   144   ar
   184   170   169    1
   185   189   190   ar
   186   189   191   ar
   187   190   192   ar
   188    81    80    1
   189    82    80    1
   190    58    57   ar
   191    57    59   ar
   192   169   168    1
   193   169   172    1
   194    80    77    1
   195   191   193   ar
   196   192   194   ar
   197   172   173    1
   198    77    76    1
   199    77    78    1
   200   193   194   ar
   201   173   175   ar
   202   173   174   ar
   203    78    79    2
   204   175   177   ar
   205   174   176   ar
   206   177   178   ar
   207   176   178   ar
   208   178   179    1
