@<TRIPOS>MOLECULE
tmp/2zirB01.pdb
 204 204 0 0 0
SMALL
GASTEIGER

@<TRIPOS>ATOM
      1  N         11.3710  143.8360    1.2640 N.3    72  ALA72      -0.1231
      2  CA        12.5150  142.9590    1.4510 C.3    72  ALA72       0.1694
      3  C         12.1630  141.5860    0.8760 C.2    72  ALA72       0.2592
      4  O         13.0460  140.7750    0.5960 O.2    72  ALA72      -0.2718
      5  CB        12.8580  142.8380    2.9280 C.3    72  ALA72       0.0304
      6  N         10.8680  141.3410    0.6910 N.am   73  TYR73      -0.1976
      7  CA        10.3940  140.0700    0.1470 C.3    73  TYR73       0.1639
      8  C         10.1980  140.1010   -1.3660 C.2    73  TYR73       0.2290
      9  O          9.6060  139.1910   -1.9400 O.2    73  TYR73      -0.2864
     10  CB         9.0960  139.6400    0.8470 C.3    73  TYR73       0.0560
     11  CG         9.3350  139.2060    2.2770 C.ar   73  TYR73      -0.0198
     12  CD1        9.5310  140.1480    3.2870 C.ar   73  TYR73      -0.0009
     13  CD2        9.4740  137.8560    2.6010 C.ar   73  TYR73      -0.0009
     14  CE1        9.8690  139.7580    4.5740 C.ar   73  TYR73       0.0417
     15  CE2        9.8120  137.4580    3.8810 C.ar   73  TYR73       0.0417
     16  CZ        10.0130  138.4100    4.8620 C.ar   73  TYR73       0.1957
     17  OH        10.3930  138.0190    6.1280 O.3    73  TYR73      -0.2866
     18  N         12.2730  139.4880   -3.5150 N.3    75  CYS75      -0.1221
     19  CA        12.9830  138.3350   -4.0580 C.3    75  CYS75       0.1808
     20  C         12.1610  137.0510   -3.9630 C.2    75  CYS75       0.2601
     21  O         12.5710  136.0090   -4.4600 O.2    75  CYS75      -0.2717
     22  CB        14.3260  138.1590   -3.3330 C.3    75  CYS75       0.0970
     23  SG        14.1990  137.7600   -1.5660 S.3    75  CYS75      -0.0800
     24  N         11.0040  137.1320   -3.3150 N.am   76  LEU76      -0.1979
     25  CA        10.1220  135.9760   -3.1810 C.3    76  LEU76       0.1596
     26  C          8.8180  136.2430   -3.8960 C.2    76  LEU76       0.2287
     27  O          7.8230  135.5770   -3.6410 O.2    76  LEU76      -0.2864
     28  CB         9.8330  135.6600   -1.7130 C.3    76  LEU76       0.0297
     29  CG        10.9980  135.0820   -0.9080 C.3    76  LEU76       0.0022
     30  CD1       10.5430  134.8830    0.5160 C.3    76  LEU76       0.0001
     31  CD2       11.4720  133.7560   -1.5240 C.3    76  LEU76       0.0001
     32  N          7.5160  133.2760   -5.4370 N.3    79  SER79      -0.1217
     33  CA         7.4010  132.1810   -4.4890 C.3    79  SER79       0.1889
     34  C          6.3010  132.4060   -3.4580 C.2    79  SER79       0.2288
     35  O          6.4070  131.9500   -2.3220 O.2    79  SER79      -0.2866
     36  CB         8.7350  131.9820   -3.7670 C.3    79  SER79       0.2089
     37  OG         9.6720  131.3230   -4.6040 O.3    79  SER79      -0.2183
     38  N          4.7270  129.5200   -1.6750 N.3    82  TRP82      -0.1241
     39  CA         5.6930  129.0330   -0.6920 C.3    82  TRP82       0.1605
     40  C          5.4780  129.7700    0.6240 C.2    82  TRP82       0.2264
     41  O          5.4890  129.1570    1.6870 O.2    82  TRP82      -0.2867
     42  CB         7.1370  129.2690   -1.1630 C.3    82  TRP82       0.0550
     43  CG         7.7610  128.1520   -1.9620 C.ar   82  TRP82       0.0003
     44  CD1        8.3120  128.2460   -3.2120 C.ar   82  TRP82       0.0946
     45  CD2        7.9540  126.7950   -1.5410 C.ar   82  TRP82       0.0152
     46  NE1        8.8410  127.0350   -3.5920 N.ar   82  TRP82      -0.2442
     47  CE2        8.6360  126.1250   -2.5860 C.ar   82  TRP82       0.0810
     48  CE3        7.6200  126.0790   -0.3820 C.ar   82  TRP82       0.0012
     49  CZ2        8.9910  124.7700   -2.5070 C.ar   82  TRP82       0.0191
     50  CZ3        7.9740  124.7230   -0.3020 C.ar   82  TRP82       0.0001
     51  CH2        8.6540  124.0890   -1.3620 C.ar   82  TRP82       0.0015
     52  N          4.7960  127.9440    4.1010 N.3    86  TRP86      -0.1241
     53  CA         5.6990  128.0690    5.2400 C.3    86  TRP86       0.1605
     54  C          5.0150  128.6290    6.4770 C.2    86  TRP86       0.2264
     55  O          5.2320  128.1450    7.5850 O.2    86  TRP86      -0.2867
     56  CB         6.8800  128.9760    4.9240 C.3    86  TRP86       0.0550
     57  CG         7.8000  128.4980    3.8540 C.ar   86  TRP86       0.0003
     58  CD1        8.1510  127.2050    3.5710 C.ar   86  TRP86       0.0946
     59  CD2        8.5300  129.3210    2.9440 C.ar   86  TRP86       0.0152
     60  NE1        9.0540  127.1790    2.5390 N.ar   86  TRP86      -0.2442
     61  CE2        9.3050  128.4620    2.1330 C.ar   86  TRP86       0.0810
     62  CE3        8.6070  130.7080    2.7360 C.ar   86  TRP86       0.0012
     63  CZ2       10.1480  128.9440    1.1210 C.ar   86  TRP86       0.0191
     64  CZ3        9.4460  131.1870    1.7330 C.ar   86  TRP86       0.0001
     65  CH2       10.2060  130.3030    0.9370 C.ar   86  TRP86       0.0015
     66  N         14.0920  117.3860   -7.0490 N.3   182  ARG182     -0.1245
     67  CA        13.0120  118.1300   -6.4070 C.3   182  ARG182      0.1563
     68  C         11.7140  117.8970   -7.1820 C.2   182  ARG182      0.2260
     69  O         10.6550  117.6930   -6.5950 O.2   182  ARG182     -0.2867
     70  CB        13.2830  119.6480   -6.4160 C.3   182  ARG182      0.0307
     71  CG        14.2560  120.2100   -5.3850 C.3   182  ARG182      0.0489
     72  CD        14.4130  121.7100   -5.6430 C.3   182  ARG182      0.2205
     73  NE        14.8760  121.9790   -7.0040 N.pl3 182  ARG182     -0.0865
     74  CZ        14.6800  123.1200   -7.6670 C.cat 182  ARG182      0.5346
     75  NH1       14.0190  124.1290   -7.1070 N.pl3 182  ARG182      0.1354
     76  NH2       15.1430  123.2550   -8.9040 N.pl3 182  ARG182      0.1354
     77  N         23.2580  115.5830   -0.9340 N.3   228  HIS228     -0.1241
     78  CA        22.7650  116.7380   -0.1980 C.3   228  HIS228      0.1621
     79  C         21.4440  116.4600    0.5050 C.2   228  HIS228      0.2264
     80  O         20.5340  115.8630   -0.0680 O.2   228  HIS228     -0.2867
     81  CB        22.6140  117.9400   -1.1460 C.3   228  HIS228      0.0745
     82  CG        22.4930  119.2550   -0.4350 C.ar  228  HIS228      0.0817
     83  ND1       21.3630  119.6240    0.2630 N.ar  228  HIS228     -0.2268
     84  CD2       23.3910  120.2540   -0.2540 C.ar  228  HIS228      0.1154
     85  CE1       21.5720  120.7910    0.8480 C.ar  228  HIS228      0.1986
     86  NE2       22.7950  121.1950    0.5500 N.ar  228  HIS228     -0.2212
     87  N         18.0520  117.3360   -1.3450 N.3   231  TYR231     -0.1241
     88  CA        17.7750  116.4100   -2.4410 C.3   231  TYR231      0.1605
     89  C         17.5670  114.9850   -1.9440 C.2   231  TYR231      0.2264
     90  O         16.7780  114.2460   -2.5200 O.2   231  TYR231     -0.2867
     91  CB        18.9140  116.4390   -3.4530 C.3   231  TYR231      0.0534
     92  CG        19.0150  117.7360   -4.2130 C.ar  231  TYR231     -0.0201
     93  CD1       20.2260  118.4150   -4.2910 C.ar  231  TYR231     -0.0009
     94  CD2       17.9020  118.2750   -4.8770 C.ar  231  TYR231     -0.0009
     95  CE1       20.3320  119.5840   -5.0010 C.ar  231  TYR231      0.0417
     96  CE2       18.0020  119.4410   -5.5900 C.ar  231  TYR231      0.0417
     97  CZ        19.2210  120.0940   -5.6480 C.ar  231  TYR231      0.1957
     98  OH        19.3430  121.2650   -6.3540 O.3   231  TYR231     -0.2866
     99  N         23.0810  124.0110    9.7480 N.3   277  ASP277     -0.1239
    100  CA        22.0240  124.9240    9.3390 C.3   277  ASP277      0.1674
    101  C         20.6800  124.3960    9.8370 C.2   277  ASP277      0.2266
    102  O         20.2720  123.2610    9.5330 O.2   277  ASP277     -0.2867
    103  CB        22.0190  125.0800    7.8000 C.3   277  ASP277      0.1410
    104  CG        20.8750  125.9780    7.2900 C.2   277  ASP277      0.3668
    105  OD1       20.9100  126.4630    6.1370 O.co2 277  ASP277     -0.2456
    106  OD2       19.9170  126.1920    8.0510 O.co2 277  ASP277     -0.2456
    107  N         17.6210  124.6820    8.9930 N.3   279  CYS279     -0.1221
    108  CA        16.5740  124.1220    8.1350 C.3   279  CYS279      0.1808
    109  C         16.8020  122.6380    7.8880 C.2   279  CYS279      0.2601
    110  O         15.8570  121.9010    7.6270 O.2   279  CYS279     -0.2717
    111  CB        16.4570  124.8740    6.8010 C.3   279  CYS279      0.0970
    112  SG        17.8650  124.7740    5.6940 S.3   279  CYS279     -0.0800
    113  N         18.0560  122.2000    7.9830 N.am  280  TYR280     -0.1976
    114  CA        18.3760  120.7910    7.7740 C.3   280  TYR280      0.1639
    115  C         17.9170  119.9820    8.9790 C.2   280  TYR280      0.2290
    116  O         18.1130  118.7740    9.0440 O.2   280  TYR280     -0.2864
    117  CB        19.8750  120.6000    7.5440 C.3   280  TYR280      0.0560
    118  CG        20.3610  121.2480    6.2630 C.ar  280  TYR280     -0.0198
    119  CD1       21.5170  122.0220    6.2570 C.ar  280  TYR280     -0.0009
    120  CD2       19.6380  121.1230    5.0680 C.ar  280  TYR280     -0.0009
    121  CE1       21.9420  122.6610    5.1090 C.ar  280  TYR280      0.0417
    122  CE2       20.0600  121.7620    3.9060 C.ar  280  TYR280      0.0417
    123  CZ        21.2200  122.5360    3.9380 C.ar  280  TYR280      0.1957
    124  OH        21.6770  123.1970    2.8180 O.3   280  TYR280     -0.2866
    125  N         15.1350  118.6400    6.6720 N.3   283  TRP283     -0.1241
    126  CA        15.5990  117.9420    5.4850 C.3   283  TRP283      0.1605
    127  C         16.4330  116.7010    5.8230 C.2   283  TRP283      0.2264
    128  O         16.2280  115.6470    5.2340 O.2   283  TRP283     -0.2867
    129  CB        16.4080  118.8820    4.5960 C.3   283  TRP283      0.0550
    130  CG        15.6600  120.1040    4.1450 C.ar  283  TRP283      0.0003
    131  CD1       16.0270  121.4030    4.3340 C.ar  283  TRP283      0.0946
    132  CD2       14.4340  120.1350    3.4020 C.ar  283  TRP283      0.0152
    133  NE1       15.1080  122.2450    3.7530 N.ar  283  TRP283     -0.2442
    134  CE2       14.1190  121.4940    3.1720 C.ar  283  TRP283      0.0810
    135  CE3       13.5770  119.1460    2.9050 C.ar  283  TRP283      0.0012
    136  CZ2       12.9780  121.8900    2.4680 C.ar  283  TRP283      0.0191
    137  CZ3       12.4440  119.5380    2.2050 C.ar  283  TRP283      0.0001
    138  CH2       12.1520  120.9010    1.9920 C.ar  283  TRP283      0.0015
    139  N         18.9530  129.9450   10.3660 N.3   332  ASP332     -0.1239
    140  CA        20.0560  129.0710    9.9850 C.3   332  ASP332      0.1674
    141  C         20.9150  128.7950   11.2200 C.2   332  ASP332      0.2266
    142  O         20.9060  127.6990   11.7760 O.2   332  ASP332     -0.2867
    143  CB        20.8820  129.7900    8.9060 C.3   332  ASP332      0.1410
    144  CG        22.0890  128.9930    8.4250 C.2   332  ASP332      0.3668
    145  OD1       22.7100  128.2380    9.2050 O.co2 332  ASP332     -0.2456
    146  OD2       22.4390  129.1540    7.2400 O.co2 332  ASP332     -0.2456
    147  N         19.9670  136.2710    9.6520 N.3   337  SER337     -0.1202
    148  CA        18.6730  136.9410    9.7400 C.3   337  SER337      0.2020
    149  C         17.5570  135.9200    9.6430 C.2   337  SER337      0.2619
    150  O         17.6940  134.8920    8.9800 O.2   337  SER337     -0.2717
    151  CB        18.5160  137.9320    8.5930 C.3   337  SER337      0.2103
    152  OG        19.6640  138.7490    8.4800 O.3   337  SER337     -0.2182
    153  N         16.4410  136.2190   10.2900 N.am  338  ARG338     -0.1965
    154  CA        15.2880  135.3350   10.2760 C.3   338  ARG338      0.1729
    155  C         14.6060  135.3780    8.9130 C.2   338  ARG338      0.2616
    156  O         14.8080  136.3040    8.1310 O.2   338  ARG338     -0.2715
    157  CB        14.2820  135.7960   11.3300 C.3   338  ARG338      0.0348
    158  CG        13.7140  137.1810   11.0240 C.3   338  ARG338      0.0492
    159  CD        12.7440  137.6680   12.0760 C.3   338  ARG338      0.2205
    160  NE        12.1250  138.9360   11.6970 N.pl3 338  ARG338     -0.0865
    161  CZ        11.1670  139.5360   12.3990 C.cat 338  ARG338      0.5346
    162  NH1       10.7180  138.9880   13.5190 N.pl3 338  ARG338      0.1354
    163  NH2       10.6450  140.6760   11.9740 N.pl3 338  ARG338      0.1354
    164  N         13.7990  134.3610    8.6410 N.am  339  ASP339     -0.1957
    165  CA        13.0130  134.2860    7.4150 C.3   339  ASP339      0.1840
    166  C         11.9680  133.1950    7.6110 C.2   339  ASP339      0.2622
    167  O         12.1070  132.3390    8.4840 O.2   339  ASP339     -0.2715
    168  CB        13.8900  134.0310    6.1770 C.3   339  ASP339      0.1450
    169  CG        14.5180  132.6620    6.1640 C.2   339  ASP339      0.3671
    170  OD1       13.7750  131.6630    6.0840 O.co2 339  ASP339     -0.2456
    171  OD2       15.7570  132.5910    6.2250 O.co2 339  ASP339     -0.2456
    172  N         10.9050  133.2450    6.8250 N.am  340  PHE340     -0.1960
    173  CA         9.8460  132.2760    6.9740 C.3   340  PHE340      0.1771
    174  C         10.2280  130.8570    6.5680 C.2   340  PHE340      0.2620
    175  O          9.6960  129.8930    7.1330 O.2   340  PHE340     -0.2715
    176  CB         8.6060  132.7750    6.2370 C.3   340  PHE340      0.0574
    177  CG         8.0300  134.0300    6.8320 C.ar  340  PHE340     -0.0200
    178  CD1        8.2110  135.2610    6.2090 C.ar  340  PHE340     -0.0042
    179  CD2        7.3300  133.9800    8.0350 C.ar  340  PHE340     -0.0042
    180  CE1        7.7060  136.4210    6.7710 C.ar  340  PHE340     -0.0003
    181  CE2        6.8160  135.1410    8.6130 C.ar  340  PHE340     -0.0003
    182  CZ         7.0050  136.3660    7.9780 C.ar  340  PHE340     -0.0000
    183  N         11.1580  130.7240    5.6200 N.am  341  TYR341     -0.1960
    184  CA        11.6180  129.4050    5.1900 C.3   341  TYR341      0.1771
    185  C         12.2490  128.6840    6.3810 C.2   341  TYR341      0.2619
    186  O         11.8930  127.5490    6.6920 O.2   341  TYR341     -0.2715
    187  CB        12.6510  129.5400    4.0660 C.3   341  TYR341      0.0574
    188  CG        13.5000  128.2960    3.8360 C.ar  341  TYR341     -0.0198
    189  CD1       13.0160  127.2120    3.0890 C.ar  341  TYR341     -0.0009
    190  CD2       14.7920  128.2080    4.3650 C.ar  341  TYR341     -0.0009
    191  CE1       13.8020  126.0810    2.8730 C.ar  341  TYR341      0.0417
    192  CE2       15.5770  127.0840    4.1560 C.ar  341  TYR341      0.0417
    193  CZ        15.0770  126.0230    3.4050 C.ar  341  TYR341      0.1957
    194  OH        15.8600  124.9120    3.1890 O.3   341  TYR341     -0.2866
    195  N         13.1950  129.3490    7.0390 N.am  342  HIS342     -0.1973
    196  CA        13.8570  128.7680    8.2010 C.3   342  HIS342      0.1656
    197  C         12.9290  128.6120    9.4030 C.2   342  HIS342      0.2291
    198  O         13.1490  127.7530   10.2570 O.2   342  HIS342     -0.2864
    199  CB        15.0670  129.6040    8.6020 C.3   342  HIS342      0.0771
    200  CG        16.2610  129.3800    7.7340 C.ar  342  HIS342      0.0820
    201  ND1       16.5170  130.1310    6.6070 N.ar  342  HIS342     -0.2267
    202  CD2       17.2560  128.4640    7.8110 C.ar  342  HIS342      0.1154
    203  CE1       17.6200  129.6900    6.0280 C.ar  342  HIS342      0.1986
    204  NE2       18.0870  128.6790    6.7390 N.ar  342  HIS342     -0.2212
@<TRIPOS>BOND
     1    76    74    1
     2    74    75    1
     3    74    73    2
     4    68    69    2
     5    68    67    1
     6    66    67    1
     7    73    72    1
     8    70    67    1
     9    70    71    1
    10    98    97    1
    11    97    96   ar
    12    97    95   ar
    13    72    71    1
    14    96    94   ar
    15    32    33    1
    16    95    93   ar
    17    94    92   ar
    18    37    36    1
    19    33    36    1
    20    33    34    1
    21    21    20    2
    22    93    92   ar
    23    92    91    1
    24    19    20    1
    25    19    18    1
    26    19    22    1
    27    20    24   am
    28    26    27    2
    29    26    25    1
    30    46    44   ar
    31    46    47   ar
    32    34    35    2
    33    91    88    1
    34    22    23    1
    35    24    25    1
    36    44    43   ar
    37    25    28    1
    38    47    49   ar
    39    47    45   ar
    40    90    89    2
    41    49    51   ar
    42    88    89    1
    43    88    87    1
    44    43    45   ar
    45    43    42    1
    46     9     8    2
    47    28    29    1
    48    38    39    1
    49    45    48   ar
    50    31    29    1
    51     8     7    1
    52    51    50   ar
    53    42    39    1
    54    81    82    1
    55    81    78    1
    56    77    78    1
    57    29    30    1
    58    39    40    1
    59    82    84   ar
    60    82    83   ar
    61    48    50   ar
    62    84    86   ar
    63    78    79    1
    64    80    79    2
    65     7     6    1
    66     7    10    1
    67    83    85   ar
    68    86    85   ar
    69     4     3    2
    70    40    41    2
    71     6     3   am
    72    10    11    1
    73     3     2    1
    74    65    63   ar
    75    65    64   ar
    76    63    61   ar
    77     1     2    1
    78     2     5    1
    79    64    62   ar
    80   138   137   ar
    81   138   136   ar
    82    61    60   ar
    83    61    59   ar
    84   137   135   ar
    85    11    13   ar
    86    11    12   ar
    87   136   134   ar
    88    60    58   ar
    89    13    15   ar
    90    62    59   ar
    91   124   123    1
    92   191   189   ar
    93   191   193   ar
    94   135   132   ar
    95    59    57   ar
    96   189   188   ar
    97   134   132   ar
    98   134   133   ar
    99   194   193    1
   100    12    14   ar
   101   132   130   ar
   102   193   192   ar
   103    58    57   ar
   104   133   131   ar
   105   188   187    1
   106   188   190   ar
   107    57    56    1
   108    15    16   ar
   109   122   123   ar
   110   122   120   ar
   111   123   121   ar
   112   187   184    1
   113    52    53    1
   114   130   131   ar
   115   130   129    1
   116   192   190   ar
   117    14    16   ar
   118   129   126    1
   119    16    17    1
   120    56    53    1
   121   120   118   ar
   122   121   119   ar
   123   184   183    1
   124   184   185    1
   125   128   127    2
   126    53    54    1
   127   126   127    1
   128   126   125    1
   129   183   174   am
   130   112   111    1
   131   203   201   ar
   132   203   204   ar
   133   170   169   ar
   134   105   104   ar
   135   169   168    1
   136   169   171   ar
   137   168   165    1
   138   178   180   ar
   139   178   177   ar
   140   176   177    1
   141   176   173    1
   142   119   118   ar
   143   118   117    1
   144   185   186    2
   145   185   195   am
   146    54    55    2
   147   174   173    1
   148   174   175    2
   149   201   200   ar
   150   204   202   ar
   151   180   182   ar
   152   111   108    1
   153   172   173    1
   154   172   166   am
   155   177   179   ar
   156   195   196    1
   157   146   144   ar
   158   104   103    1
   159   104   106   ar
   160   165   166    1
   161   165   164    1
   162   117   114    1
   163   166   167    2
   164   110   109    2
   165   200   202   ar
   166   200   199    1
   167   114   113    1
   168   114   115    1
   169   103   100    1
   170   109   113   am
   171   109   108    1
   172   182   181   ar
   173   179   181   ar
   174   156   155    2
   175   108   107    1
   176   196   199    1
   177   196   197    1
   178   144   143    1
   179   144   145   ar
   180   152   151    1
   181   151   148    1
   182   164   155   am
   183   143   140    1
   184   155   154    1
   185   115   116    2
   186   150   149    2
   187   100    99    1
   188   100   101    1
   189   197   198    2
   190   102   101    2
   191   149   148    1
   192   149   153   am
   193   147   148    1
   194   140   139    1
   195   140   141    1
   196   154   153    1
   197   154   157    1
   198   158   157    1
   199   158   159    1
   200   141   142    2
   201   160   159    1
   202   160   161    2
   203   163   161    1
   204   161   162    1
