@<TRIPOS>MOLECULE
tmp/2zisB01.pdb
 187 186 0 0 0
SMALL
GASTEIGER

@<TRIPOS>ATOM
      1  N         55.2420   80.1460    0.9520 N.3    72  TYR72      -0.1241
      2  CA        56.1160   79.1660    0.3330 C.3    72  TYR72       0.1605
      3  C         55.8360   78.9420   -1.1500 C.2    72  TYR72       0.2264
      4  O         56.2110   77.9140   -1.7070 O.2    72  TYR72      -0.2867
      5  CB        56.0500   77.8370    1.0990 C.3    72  TYR72       0.0534
      6  CG        56.9390   77.7980    2.3270 C.ar   72  TYR72      -0.0201
      7  CD1       56.4130   77.9560    3.6150 C.ar   72  TYR72      -0.0009
      8  CD2       58.3250   77.6440    2.1910 C.ar   72  TYR72      -0.0009
      9  CE1       57.2520   77.9630    4.7350 C.ar   72  TYR72       0.0417
     10  CE2       59.1670   77.6510    3.2980 C.ar   72  TYR72       0.0417
     11  CZ        58.6310   77.8120    4.5620 C.ar   72  TYR72       0.1957
     12  OH        59.4910   77.8550    5.6360 O.3    72  TYR72      -0.2866
     13  N         57.2650   80.3260   -3.4240 N.3    74  CYS74      -0.1221
     14  CA        58.5850   80.3400   -4.0390 C.3    74  CYS74       0.1808
     15  C         59.2870   78.9790   -3.9580 C.2    74  CYS74       0.2601
     16  O         60.3650   78.7980   -4.5070 O.2    74  CYS74      -0.2717
     17  CB        59.4500   81.4470   -3.4010 C.3    74  CYS74       0.0970
     18  SG        59.8790   81.2570   -1.6300 S.3    74  CYS74      -0.0800
     19  N         58.6680   78.0250   -3.2730 N.am   75  LEU75      -0.1979
     20  CA        59.2410   76.6900   -3.1570 C.3    75  LEU75       0.1596
     21  C         58.3620   75.6890   -3.8910 C.2    75  LEU75       0.2287
     22  O         58.4540   74.4870   -3.6730 O.2    75  LEU75      -0.2864
     23  CB        59.3950   76.2780   -1.6880 C.3    75  LEU75       0.0297
     24  CG        60.5520   76.9120   -0.9030 C.3    75  LEU75       0.0022
     25  CD1       60.6410   76.2310    0.4320 C.3    75  LEU75       0.0001
     26  CD2       61.8870   76.7450   -1.6440 C.3    75  LEU75       0.0001
     27  N         60.3200   73.1410   -5.3400 N.3    78  SER78      -0.1217
     28  CA        61.1980   72.4720   -4.3980 C.3    78  SER78       0.1889
     29  C         60.4490   71.6330   -3.3670 C.2    78  SER78       0.2288
     30  O         60.8840   71.5260   -2.2230 O.2    78  SER78      -0.2866
     31  CB        62.0500   73.5140   -3.6710 C.3    78  SER78       0.2089
     32  OG        63.0570   74.0350   -4.5230 O.3    78  SER78      -0.2183
     33  N         62.1930   68.7840   -1.5500 N.3    81  TRP81      -0.1241
     34  CA        63.1230   69.3230   -0.5550 C.3    81  TRP81       0.1605
     35  C         62.3600   69.4830    0.7490 C.2    81  TRP81       0.2264
     36  O         62.8210   69.0770    1.8160 O.2    81  TRP81      -0.2867
     37  CB        63.6660   70.6950   -0.9880 C.3    81  TRP81       0.0550
     38  CG        64.9290   70.6740   -1.8070 C.ar   81  TRP81       0.0003
     39  CD1       65.0920   71.1460   -3.0810 C.ar   81  TRP81       0.0946
     40  CD2       66.2120   70.1910   -1.3920 C.ar   81  TRP81       0.0152
     41  NE1       66.3940   70.9900   -3.4840 N.ar   81  TRP81      -0.2442
     42  CE2       67.1070   70.4070   -2.4680 C.ar   81  TRP81       0.0810
     43  CE3       66.6940   69.5990   -0.2190 C.ar   81  TRP81       0.0012
     44  CZ2       68.4610   70.0510   -2.4040 C.ar   81  TRP81       0.0191
     45  CZ3       68.0410   69.2450   -0.1550 C.ar   81  TRP81       0.0001
     46  CH2       68.9070   69.4750   -1.2450 C.ar   81  TRP81       0.0015
     47  N         63.6410   67.9990    4.1730 N.3    85  TRP85      -0.1241
     48  CA        63.9650   68.8610    5.3080 C.3    85  TRP85       0.1605
     49  C         63.1260   68.5580    6.5450 C.2    85  TRP85       0.2264
     50  O         63.6450   68.4690    7.6560 O.2    85  TRP85      -0.2867
     51  CB        63.7550   70.3420    4.9590 C.3    85  TRP85       0.0550
     52  CG        64.6230   70.8770    3.8600 C.ar   85  TRP85       0.0003
     53  CD1       65.9100   70.5150    3.5720 C.ar   85  TRP85       0.0946
     54  CD2       64.2800   71.9140    2.9320 C.ar   85  TRP85       0.0152
     55  NE1       66.3870   71.2590    2.5240 N.ar   85  TRP85      -0.2442
     56  CE2       65.4110   72.1270    2.1100 C.ar   85  TRP85       0.0810
     57  CE3       63.1260   72.6890    2.7150 C.ar   85  TRP85       0.0012
     58  CZ2       65.4250   73.0810    1.0850 C.ar   85  TRP85       0.0191
     59  CZ3       63.1390   73.6370    1.6990 C.ar   85  TRP85       0.0001
     60  CH2       64.2860   73.8240    0.8940 C.ar   85  TRP85       0.0015
     61  N         68.6740   68.2590   -7.8980 N.3   130  ALA130     -0.1245
     62  CA        68.4440   68.6870   -6.5280 C.3   130  ALA130      0.1562
     63  C         67.1960   68.0010   -5.9540 C.2   130  ALA130      0.2260
     64  O         67.2660   67.3700   -4.8930 O.2   130  ALA130     -0.2867
     65  CB        68.3220   70.1990   -6.4610 C.3   130  ALA130      0.0290
     66  N         77.4740   70.8220   -7.0160 N.3   181  ARG181     -0.1245
     67  CA        76.3000   70.2780   -6.3320 C.3   181  ARG181      0.1563
     68  C         75.7880   69.0460   -7.0900 C.2   181  ARG181      0.2260
     69  O         75.3790   68.0480   -6.4890 O.2   181  ARG181     -0.2867
     70  CB        75.1620   71.3110   -6.2690 C.3   181  ARG181      0.0307
     71  CG        75.3540   72.5070   -5.3360 C.3   181  ARG181      0.0489
     72  CD        74.1870   73.4880   -5.4950 C.3   181  ARG181      0.2205
     73  NE        74.0160   73.8850   -6.8940 N.pl3 181  ARG181     -0.0865
     74  CZ        72.8540   74.2170   -7.4580 C.cat 181  ARG181      0.5346
     75  NH1       71.7310   74.2090   -6.7460 N.pl3 181  ARG181      0.1354
     76  NH2       72.8050   74.5420   -8.7460 N.pl3 181  ARG181      0.1354
     77  N         83.4010   78.0120   -0.9860 N.3   227  HIS227     -0.1241
     78  CA        82.1390   78.1610   -0.2730 C.3   227  HIS227      0.1621
     79  C         81.7520   76.8840    0.4590 C.2   227  HIS227      0.2264
     80  O         81.8930   75.7870   -0.0730 O.2   227  HIS227     -0.2867
     81  CB        81.0190   78.5550   -1.2390 C.3   227  HIS227      0.0745
     82  CG        79.7660   79.0060   -0.5530 C.ar  227  HIS227      0.0817
     83  ND1       78.8980   78.1290    0.0640 N.ar  227  HIS227     -0.2268
     84  CD2       79.2780   80.2480   -0.3160 C.ar  227  HIS227      0.1154
     85  CE1       77.9300   78.8120    0.6500 C.ar  227  HIS227      0.1986
     86  NE2       78.1390   80.1000    0.4380 N.ar  227  HIS227     -0.2212
     87  N         79.3540   74.3080   -1.3780 N.3   230  TYR230     -0.1241
     88  CA        79.9870   73.5540   -2.4490 C.3   230  TYR230      0.1605
     89  C         81.1140   72.6710   -1.9370 C.2   230  TYR230      0.2264
     90  O         81.3610   71.6040   -2.4880 O.2   230  TYR230     -0.2867
     91  CB        80.5100   74.4980   -3.5350 C.3   230  TYR230      0.0534
     92  CG        79.4330   75.2700   -4.2800 C.ar  230  TYR230     -0.0201
     93  CD1       79.3970   76.6680   -4.2380 C.ar  230  TYR230     -0.0009
     94  CD2       78.4770   74.6100   -5.0640 C.ar  230  TYR230     -0.0009
     95  CE1       78.4440   77.3850   -4.9570 C.ar  230  TYR230      0.0417
     96  CE2       77.5230   75.3190   -5.7850 C.ar  230  TYR230      0.0417
     97  CZ        77.5180   76.7030   -5.7280 C.ar  230  TYR230      0.1957
     98  OH        76.6160   77.4090   -6.4820 O.3   230  TYR230     -0.2866
     99  N         75.9790   81.9960    9.7720 N.3   276  ASP276     -0.1239
    100  CA        74.6460   81.5630    9.3570 C.3   276  ASP276      0.1674
    101  C         74.4030   80.1390    9.8580 C.2   276  ASP276      0.2266
    102  O         75.1600   79.2120    9.5520 O.2   276  ASP276     -0.2867
    103  CB        74.5250   81.6290    7.8360 C.3   276  ASP276      0.1410
    104  CG        73.2120   81.0750    7.3280 C.2   276  ASP276      0.3668
    105  OD1       72.9100   81.3070    6.1410 O.co2 276  ASP276     -0.2456
    106  OD2       72.4900   80.4060    8.1010 O.co2 276  ASP276     -0.2456
    107  N         72.6400   77.5870    9.0650 N.3   278  CYS278     -0.1221
    108  CA        72.6530   76.4080    8.1970 C.3   278  CYS278      0.1808
    109  C         74.0580   75.8840    7.9270 C.2   278  CYS278      0.2601
    110  O         74.2430   74.6960    7.6360 O.2   278  CYS278     -0.2717
    111  CB        71.9470   76.6830    6.8640 C.3   278  CYS278      0.0970
    112  SG        72.7810   77.8170    5.7070 S.3   278  CYS278     -0.0800
    113  N         75.0460   76.7640    8.0190 N.am  279  TYR279     -0.1976
    114  CA        76.4190   76.3500    7.7750 C.3   279  TYR279      0.1639
    115  C         76.9360   75.5470    8.9590 C.2   279  TYR279      0.2290
    116  O         78.0770   75.0810    8.9560 O.2   279  TYR279     -0.2864
    117  CB        77.3100   77.5650    7.5180 C.3   279  TYR279      0.0560
    118  CG        76.9970   78.2550    6.2130 C.ar  279  TYR279     -0.0198
    119  CD1       76.7790   79.6320    6.1660 C.ar  279  TYR279     -0.0009
    120  CD2       76.8950   77.5250    5.0240 C.ar  279  TYR279     -0.0009
    121  CE1       76.4560   80.2660    4.9730 C.ar  279  TYR279      0.0417
    122  CE2       76.5750   78.1520    3.8180 C.ar  279  TYR279      0.0417
    123  CZ        76.3510   79.5220    3.8050 C.ar  279  TYR279      0.1957
    124  OH        75.9840   80.1500    2.6390 O.3   279  TYR279     -0.2866
    125  N         76.8340   72.4570    6.7050 N.3   282  TRP282     -0.1241
    126  CA        77.6970   72.4750    5.5330 C.3   282  TRP282      0.1605
    127  C         79.1760   72.5880    5.8940 C.2   282  TRP282      0.2264
    128  O         80.0050   71.8790    5.3310 O.2   282  TRP282     -0.2867
    129  CB        77.3040   73.6200    4.5990 C.3   282  TRP282      0.0550
    130  CG        75.8630   73.6080    4.1640 C.ar  282  TRP282      0.0003
    131  CD1       74.9390   74.5920    4.3730 C.ar  282  TRP282      0.0946
    132  CD2       75.1910   72.5760    3.4290 C.ar  282  TRP282      0.0152
    133  NE1       73.7300   74.2420    3.8140 N.ar  282  TRP282     -0.2442
    134  CE2       73.8530   73.0100    3.2270 C.ar  282  TRP282      0.0810
    135  CE3       75.5860   71.3300    2.9180 C.ar  282  TRP282      0.0012
    136  CZ2       72.9070   72.2420    2.5370 C.ar  282  TRP282      0.0191
    137  CZ3       74.6440   70.5610    2.2290 C.ar  282  TRP282      0.0001
    138  CH2       73.3140   71.0260    2.0460 C.ar  282  TRP282      0.0015
    139  N         68.7510   81.4010   10.3220 N.3   331  ASP331     -0.1239
    140  CA        70.0510   81.9480    9.9530 C.3   331  ASP331      0.1674
    141  C         70.7390   82.5340   11.1930 C.2   331  ASP331      0.2266
    142  O         71.7430   82.0110   11.6730 O.2   331  ASP331     -0.2867
    143  CB        69.8160   83.0330    8.8920 C.3   331  ASP331      0.1410
    144  CG        71.0990   83.6410    8.3430 C.2   331  ASP331      0.3668
    145  OD1       72.0820   83.8180    9.0940 O.co2 331  ASP331     -0.2456
    146  OD2       71.1080   83.9790    7.1400 O.co2 331  ASP331     -0.2456
    147  N         62.4780   79.0960    8.6230 N.3   338  ASP338     -0.1225
    148  CA        62.1160   78.3810    7.4010 C.3   338  ASP338      0.1805
    149  C         62.5650   76.9330    7.5920 C.2   338  ASP338      0.2598
    150  O         63.4230   76.6450    8.4270 O.2   338  ASP338     -0.2718
    151  CB        62.7560   79.0170    6.1550 C.3   338  ASP338      0.1424
    152  CG        64.2680   78.9310    6.1550 C.2   338  ASP338      0.3668
    153  OD1       64.8000   77.8130    6.0170 O.co2 338  ASP338     -0.2456
    154  OD2       64.9190   79.9860    6.2920 O.co2 338  ASP338     -0.2456
    155  N         61.9700   76.0150    6.8440 N.am  339  PHE339     -0.1962
    156  CA        62.3090   74.6170    7.0060 C.3   339  PHE339      0.1771
    157  C         63.7420   74.2740    6.6230 C.2   339  PHE339      0.2620
    158  O         64.3680   73.4320    7.2670 O.2   339  PHE339     -0.2715
    159  CB        61.2880   73.7550    6.2630 C.3   339  PHE339      0.0574
    160  CG        59.9000   73.8790    6.8210 C.ar  339  PHE339     -0.0200
    161  CD1       58.9960   74.7840    6.2800 C.ar  339  PHE339     -0.0042
    162  CD2       59.5110   73.1230    7.9230 C.ar  339  PHE339     -0.0042
    163  CE1       57.7310   74.9360    6.8270 C.ar  339  PHE339     -0.0003
    164  CE2       58.2460   73.2700    8.4770 C.ar  339  PHE339     -0.0003
    165  CZ        57.3580   74.1790    7.9260 C.ar  339  PHE339     -0.0000
    166  N         64.2720   74.9350    5.5950 N.am  340  TYR340     -0.1960
    167  CA        65.6550   74.7050    5.1810 C.3   340  TYR340      0.1771
    168  C         66.5880   74.9130    6.3830 C.2   340  TYR340      0.2619
    169  O         67.3870   74.0380    6.7240 O.2   340  TYR340     -0.2715
    170  CB        66.0430   75.6770    4.0590 C.3   340  TYR340      0.0574
    171  CG        67.5410   75.7860    3.8160 C.ar  340  TYR340     -0.0198
    172  CD1       68.2180   74.8570    3.0120 C.ar  340  TYR340     -0.0009
    173  CD2       68.2810   76.8270    4.3850 C.ar  340  TYR340     -0.0009
    174  CE1       69.5910   74.9740    2.7830 C.ar  340  TYR340      0.0417
    175  CE2       69.6450   76.9470    4.1600 C.ar  340  TYR340      0.0417
    176  CZ        70.2900   76.0190    3.3600 C.ar  340  TYR340      0.1957
    177  OH        71.6400   76.1350    3.1550 O.3   340  TYR340     -0.2866
    178  N         66.4810   76.0770    7.0230 N.am  341  HIS341     -0.1973
    179  CA        67.3110   76.3750    8.1810 C.3   341  HIS341      0.1656
    180  C         66.9910   75.5010    9.3780 C.2   341  HIS341      0.2291
    181  O         67.8710   75.1960   10.1840 O.2   341  HIS341     -0.2864
    182  CB        67.1890   77.8400    8.5680 C.3   341  HIS341      0.0771
    183  CG        68.0000   78.7490    7.7040 C.ar  341  HIS341      0.0820
    184  ND1       67.5330   79.2600    6.5110 N.ar  341  HIS341     -0.2267
    185  CD2       69.2640   79.2120    7.8430 C.ar  341  HIS341      0.1154
    186  CE1       68.4750   80.0010    5.9550 C.ar  341  HIS341      0.1986
    187  NE2       69.5350   79.9870    6.7420 N.ar  341  HIS341     -0.2212
@<TRIPOS>BOND
     1    76    74    1
     2    61    62    1
     3    74    73    2
     4    74    75    1
     5    68    69    2
     6    68    67    1
     7    66    67    1
     8    73    72    1
     9    62    65    1
    10    62    63    1
    11    98    97    1
    12    67    70    1
    13    70    71    1
    14    63    64    2
    15    96    97   ar
    16    96    94   ar
    17    97    95   ar
    18    72    71    1
    19    27    28    1
    20    94    92   ar
    21    95    93   ar
    22    32    31    1
    23    16    15    2
    24    28    31    1
    25    28    29    1
    26    92    93   ar
    27    92    91    1
    28    14    15    1
    29    14    13    1
    30    14    17    1
    31    15    19   am
    32    21    22    2
    33    21    20    1
    34    91    88    1
    35    41    39   ar
    36    41    42   ar
    37    17    18    1
    38    29    30    2
    39    19    20    1
    40    20    23    1
    41    39    38   ar
    42    90    89    2
    43    42    44   ar
    44    42    40   ar
    45    88    89    1
    46    88    87    1
    47    44    46   ar
    48    38    40   ar
    49    38    37    1
    50     4     3    2
    51    23    24    1
    52    26    24    1
    53    33    34    1
    54    40    43   ar
    55    46    45   ar
    56    81    82    1
    57    81    78    1
    58     3     2    1
    59    37    34    1
    60    77    78    1
    61    24    25    1
    62    34    35    1
    63    82    84   ar
    64    82    83   ar
    65    84    86   ar
    66    78    79    1
    67    43    45   ar
    68    80    79    2
    69    83    85   ar
    70     2     1    1
    71     2     5    1
    72    86    85   ar
    73    35    36    2
    74    60    58   ar
    75    60    59   ar
    76    58    56   ar
    77     5     6    1
    78    59    57   ar
    79   138   137   ar
    80   138   136   ar
    81    56    55   ar
    82    56    54   ar
    83     8     6   ar
    84     8    10   ar
    85   137   135   ar
    86     6     7   ar
    87    55    53   ar
    88   136   134   ar
    89   124   123    1
    90    57    54   ar
    91   174   172   ar
    92   174   176   ar
    93   135   132   ar
    94    54    52   ar
    95   172   171   ar
    96   177   176    1
    97   134   132   ar
    98   134   133   ar
    99    10    11   ar
   100   176   175   ar
   101   132   130   ar
   102    53    52   ar
   103     7     9   ar
   104   123   122   ar
   105   123   121   ar
   106   133   131   ar
   107   171   170    1
   108   171   173   ar
   109   122   120   ar
   110    52    51    1
   111   170   167    1
   112   175   173   ar
   113   130   131   ar
   114   130   129    1
   115    47    48    1
   116    11     9   ar
   117    11    12    1
   118   129   126    1
   119    51    48    1
   120   121   119   ar
   121   120   118   ar
   122   167   166    1
   123   167   168    1
   124    48    49    1
   125   128   127    2
   126   126   127    1
   127   126   125    1
   128   166   157   am
   129   112   111    1
   130   186   184   ar
   131   186   187   ar
   132   153   152   ar
   133   105   104   ar
   134   151   152    1
   135   151   148    1
   136   152   154   ar
   137   119   118   ar
   138   118   117    1
   139   159   160    1
   140   159   156    1
   141   161   160   ar
   142   161   163   ar
   143   168   169    2
   144   168   178   am
   145   184   183   ar
   146    49    50    2
   147   157   156    1
   148   157   158    2
   149   187   185   ar
   150   160   162   ar
   151   163   165   ar
   152   155   156    1
   153   155   149   am
   154   111   108    1
   155   178   179    1
   156   146   144   ar
   157   104   103    1
   158   104   106   ar
   159   148   149    1
   160   148   147    1
   161   117   114    1
   162   149   150    2
   163   110   109    2
   164   183   185   ar
   165   183   182    1
   166   114   113    1
   167   114   115    1
   168   103   100    1
   169   162   164   ar
   170   165   164   ar
   171   109   113   am
   172   109   108    1
   173   179   182    1
   174   179   180    1
   175   108   107    1
   176   144   143    1
   177   144   145   ar
   178   143   140    1
   179   116   115    2
   180   100    99    1
   181   100   101    1
   182   180   181    2
   183   102   101    2
   184   140   139    1
   185   140   141    1
   186   141   142    2
