@<TRIPOS>MOLECULE
tmp/2zitF00.pdb
 217 212 0 0 0
SMALL
GASTEIGER

@<TRIPOS>ATOM
      1  N        -41.7090  -43.7290   87.1060 N.3    42  HIS42      -0.1226
      2  CA       -42.9990  -43.1290   87.4300 C.3    42  HIS42       0.1752
      3  C        -43.8310  -42.9430   86.1650 C.2    42  HIS42       0.2597
      4  O        -43.4740  -42.1560   85.2900 O.2    42  HIS42      -0.2718
      5  CB       -42.8060  -41.7850   88.1350 C.3    42  HIS42       0.0759
      6  CG       -44.0830  -41.0410   88.3800 C.ar   42  HIS42       0.0818
      7  ND1      -44.7510  -41.0850   89.5850 N.ar   42  HIS42      -0.2268
      8  CD2      -44.8130  -40.2320   87.5750 C.ar   42  HIS42       0.1154
      9  CE1      -45.8370  -40.3350   89.5120 C.ar   42  HIS42       0.1986
     10  NE2      -45.8980  -39.8070   88.3030 N.ar   42  HIS42      -0.2212
     11  N        -44.9370  -43.6750   86.0710 N.am   43  GLY43      -0.1942
     12  CA       -45.8130  -43.5930   84.9150 C.3    43  GLY43       0.2014
     13  C        -46.9330  -42.5850   85.0950 C.2    43  GLY43       0.2640
     14  O        -47.5110  -42.4760   86.1780 O.2    43  GLY43      -0.2714
     15  N        -47.2410  -41.8490   84.0310 N.am   44  THR44      -0.1936
     16  CA       -48.2800  -40.8260   84.0860 C.3    44  THR44       0.2028
     17  C        -48.6780  -40.3370   82.6980 C.2    44  THR44       0.2642
     18  O        -48.1220  -40.7770   81.6940 O.2    44  THR44      -0.2714
     19  CB       -47.8240  -39.6200   84.9160 C.3    44  THR44       0.1808
     20  OG1      -48.8540  -38.6240   84.9180 O.3    44  THR44      -0.2208
     21  CG2      -46.5520  -39.0270   84.3330 C.3    44  THR44       0.0379
     22  N        -49.6420  -39.4200   82.6510 N.am   45  PHE45      -0.1973
     23  CA       -50.1170  -38.8660   81.3870 C.3    45  PHE45       0.1639
     24  C        -49.2010  -37.7700   80.8460 C.2    45  PHE45       0.2290
     25  O        -48.4310  -37.1630   81.5910 O.2    45  PHE45      -0.2864
     26  CB       -51.5610  -38.3650   81.5080 C.3    45  PHE45       0.0560
     27  CG       -51.7720  -37.3470   82.5950 C.ar   45  PHE45      -0.0200
     28  CD1      -51.8590  -37.7360   83.9220 C.ar   45  PHE45      -0.0042
     29  CD2      -51.9150  -36.0030   82.2870 C.ar   45  PHE45      -0.0042
     30  CE1      -52.0670  -36.8030   84.9240 C.ar   45  PHE45      -0.0003
     31  CE2      -52.1250  -35.0650   83.2830 C.ar   45  PHE45      -0.0003
     32  CZ       -52.2000  -35.4660   84.6040 C.ar   45  PHE45      -0.0000
     33  N        -48.6890  -34.3360   82.3820 N.3    48  ALA48      -0.1245
     34  CA       -48.0680  -34.5240   83.6860 C.3    48  ALA48       0.1562
     35  C        -46.5640  -34.6980   83.5330 C.2    48  ALA48       0.2260
     36  O        -45.7810  -34.1080   84.2770 O.2    48  ALA48      -0.2867
     37  CB       -48.6740  -35.7220   84.3950 C.3    48  ALA48       0.0290
     38  N        -44.9300  -31.4250   82.8660 N.3    51  SER51      -0.1202
     39  CA       -44.8220  -30.6760   84.1100 C.3    51  SER51       0.2020
     40  C        -43.6270  -31.1490   84.9270 C.2    51  SER51       0.2618
     41  O        -42.7440  -30.3630   85.2690 O.2    51  SER51      -0.2717
     42  CB       -46.1040  -30.8190   84.9330 C.3    51  SER51       0.2103
     43  OG       -45.9760  -30.1860   86.1950 O.3    51  SER51      -0.2182
     44  N        -43.6050  -32.4440   85.2250 N.am   52  ILE52      -0.1979
     45  CA       -42.5770  -33.0350   86.0750 C.3    52  ILE52       0.1595
     46  C        -41.1590  -32.8020   85.5550 C.2    52  ILE52       0.2287
     47  O        -40.2700  -32.4020   86.3040 O.2    52  ILE52      -0.2864
     48  CB       -42.8050  -34.5480   86.2440 C.3    52  ILE52       0.0276
     49  CG1      -44.1640  -34.8100   86.8940 C.3    52  ILE52       0.0022
     50  CG2      -41.6880  -35.1680   87.0640 C.3    52  ILE52       0.0022
     51  CD1      -44.5370  -36.2690   86.9560 C.3    52  ILE52       0.0001
     52  N        -40.3230  -29.8120   87.4310 N.3    56  GLY56      -0.1210
     53  CA       -39.9940  -30.5270   88.6470 C.3    56  GLY56       0.1956
     54  C        -41.2210  -31.0440   89.3660 C.2    56  GLY56       0.2612
     55  O        -42.3270  -30.5450   89.1700 O.2    56  GLY56      -0.2717
     56  N        -41.0160  -32.0550   90.2010 N.am   57  VAL57      -0.1965
     57  CA       -42.0820  -32.6250   91.0080 C.3    57  VAL57       0.1727
     58  C        -42.5250  -31.6400   92.0810 C.2    57  VAL57       0.2616
     59  O        -41.6970  -31.0580   92.7800 O.2    57  VAL57      -0.2715
     60  CB       -41.6230  -33.9270   91.6870 C.3    57  VAL57       0.0290
     61  CG1      -42.6060  -34.3400   92.7710 C.3    57  VAL57       0.0023
     62  CG2      -41.4520  -35.0310   90.6560 C.3    57  VAL57       0.0023
     63  N        -43.8350  -31.4540   92.2060 N.am   58  ARG58      -0.1977
     64  CA       -44.3850  -30.5670   93.2240 C.3    58  ARG58       0.1597
     65  C        -45.5410  -31.2350   93.9510 C.2    58  ARG58       0.2287
     66  O        -46.3090  -31.9880   93.3550 O.2    58  ARG58      -0.2864
     67  CB       -44.8560  -29.2570   92.6000 C.3    58  ARG58       0.0334
     68  CG       -43.8230  -28.5780   91.7280 C.3    58  ARG58       0.0492
     69  CD       -44.4240  -27.3740   91.0310 C.3    58  ARG58       0.2205
     70  NE       -43.8940  -27.2210   89.6810 N.pl3  58  ARG58      -0.0865
     71  CZ       -44.3710  -27.8620   88.6190 C.cat  58  ARG58       0.5346
     72  NH1      -45.3910  -28.7000   88.7510 N.pl3  58  ARG58       0.1354
     73  NH2      -43.8300  -27.6670   87.4250 N.pl3  58  ARG58       0.1354
     74  N        -49.0370  -32.1030   95.7930 N.3    60  ARG60      -0.1231
     75  CA       -50.4020  -31.9100   95.3320 C.3    60  ARG60       0.1694
     76  C        -51.3580  -32.8040   96.1120 C.2    60  ARG60       0.2593
     77  O        -50.9250  -33.6400   96.9080 O.2    60  ARG60      -0.2718
     78  CB       -50.4860  -32.2070   93.8370 C.3    60  ARG60       0.0321
     79  CG       -50.1600  -33.6410   93.4690 C.3    60  ARG60       0.0489
     80  CD       -49.4720  -33.7170   92.1130 C.3    60  ARG60       0.2205
     81  NE       -50.1450  -32.9470   91.0650 N.pl3  60  ARG60      -0.0865
     82  CZ       -49.7530  -31.7450   90.6440 C.cat  60  ARG60       0.5346
     83  NH1      -50.4210  -31.1220   89.6820 N.pl3  60  ARG60       0.1354
     84  NH2      -48.6980  -31.1550   91.1860 N.pl3  60  ARG60       0.1354
     85  N        -52.6560  -32.6210   95.8870 N.am   61  SER61      -0.1938
     86  CA       -53.6740  -33.3940   96.5900 C.3    61  SER61       0.2055
     87  C        -53.7950  -34.8090   96.0330 C.2    61  SER61       0.2643
     88  O        -53.6400  -35.0290   94.8320 O.2    61  SER61      -0.2714
     89  CB       -55.0300  -32.6890   96.5110 C.3    61  SER61       0.2130
     90  OG       -54.9910  -31.4280   97.1550 O.3    61  SER61      -0.2179
     91  N        -54.0730  -35.7660   96.9130 N.am   62  GLN62      -0.1963
     92  CA       -54.2430  -37.1570   96.5120 C.3    62  GLN62       0.1733
     93  C        -55.2880  -37.8160   97.3980 C.2    62  GLN62       0.2616
     94  O        -55.3240  -37.5740   98.6040 O.2    62  GLN62      -0.2715
     95  CB       -52.9230  -37.9150   96.6390 C.3    62  GLN62       0.0408
     96  CG       -51.6980  -37.1070   96.2580 C.3    62  GLN62       0.0908
     97  CD       -50.4120  -37.8030   96.6380 C.2    62  GLN62       0.2608
     98  OE1      -49.6780  -37.3410   97.5110 O.2    62  GLN62      -0.2717
     99  NE2      -50.1370  -38.9310   95.9950 N.am   62  GLN62      -0.0878
    100  N        -56.1340  -38.6530   96.8050 N.am   63  ASP63      -0.1957
    101  CA       -57.1780  -39.3340   97.5650 C.3    63  ASP63       0.1840
    102  C        -56.6350  -40.5610   98.3000 C.2    63  ASP63       0.2621
    103  O        -56.7130  -41.6880   97.8100 O.2    63  ASP63      -0.2715
    104  CB       -58.3660  -39.7040   96.6680 C.3    63  ASP63       0.1450
    105  CG       -58.0030  -40.7130   95.5950 C.2    63  ASP63       0.3671
    106  OD1      -56.8030  -40.8370   95.2700 O.co2  63  ASP63      -0.2456
    107  OD2      -58.9230  -41.3830   95.0780 O.co2  63  ASP63      -0.2456
    108  N        -56.0740  -40.3180   99.4800 N.am   64  LEU64      -0.1977
    109  CA       -55.5380  -41.3680  100.3390 C.3    64  LEU64       0.1596
    110  C        -55.2630  -40.7860  101.7220 C.2    64  LEU64       0.2287
    111  O        -55.1090  -39.5720  101.8650 O.2    64  LEU64      -0.2864
    112  CB       -54.2650  -41.9750   99.7410 C.3    64  LEU64       0.0297
    113  CG       -53.3110  -41.0600   98.9680 C.3    64  LEU64       0.0022
    114  CD1      -52.8540  -39.8900   99.8140 C.3    64  LEU64       0.0001
    115  CD2      -52.1150  -41.8520   98.4580 C.3    64  LEU64       0.0001
    116  N        -47.3130  -38.5130   99.1520 N.3    70  GLY70      -0.1210
    117  CA       -45.9430  -38.5010   98.6850 C.3    70  GLY70       0.1956
    118  C        -45.8830  -38.8890   97.2260 C.2    70  GLY70       0.2612
    119  O        -46.9110  -39.1570   96.6070 O.2    70  GLY70      -0.2717
    120  N        -44.6770  -38.9180   96.6730 N.am   71  PHE71      -0.1962
    121  CA       -44.4980  -39.2510   95.2690 C.3    71  PHE71       0.1771
    122  C        -44.3060  -40.7540   95.1020 C.2    71  PHE71       0.2620
    123  O        -43.4230  -41.3480   95.7200 O.2    71  PHE71      -0.2715
    124  CB       -43.3130  -38.4810   94.6920 C.3    71  PHE71       0.0574
    125  CG       -43.3070  -38.4140   93.1960 C.ar   71  PHE71      -0.0200
    126  CD1      -44.2810  -37.7040   92.5200 C.ar   71  PHE71      -0.0042
    127  CD2      -42.3220  -39.0550   92.4660 C.ar   71  PHE71      -0.0042
    128  CE1      -44.2780  -37.6410   91.1420 C.ar   71  PHE71      -0.0003
    129  CE2      -42.3140  -38.9950   91.0900 C.ar   71  PHE71      -0.0003
    130  CZ       -43.2940  -38.2870   90.4260 C.ar   71  PHE71      -0.0000
    131  N        -45.1410  -41.3670   94.2690 N.am   72  TYR72      -0.1960
    132  CA       -45.1220  -42.8160   94.1030 C.3    72  TYR72       0.1771
    133  C        -44.3460  -43.2620   92.8710 C.2    72  TYR72       0.2619
    134  O        -44.6900  -42.9040   91.7440 O.2    72  TYR72      -0.2715
    135  CB       -46.5490  -43.3650   94.0490 C.3    72  TYR72       0.0574
    136  CG       -47.2390  -43.3720   95.3910 C.ar   72  TYR72      -0.0198
    137  CD1      -47.7660  -42.2060   95.9290 C.ar   72  TYR72      -0.0009
    138  CD2      -47.3540  -44.5430   96.1260 C.ar   72  TYR72      -0.0009
    139  CE1      -48.3920  -42.2080   97.1590 C.ar   72  TYR72       0.0417
    140  CE2      -47.9800  -44.5550   97.3550 C.ar   72  TYR72       0.0417
    141  CZ       -48.4960  -43.3860   97.8680 C.ar   72  TYR72       0.1957
    142  OH       -49.1190  -43.4000   99.0950 O.3    72  TYR72      -0.2866
    143  N        -43.2990  -44.0490   93.0980 N.am   73  ILE73      -0.1963
    144  CA       -42.4970  -44.6000   92.0120 C.3    73  ILE73       0.1727
    145  C        -42.2940  -46.0960   92.2120 C.2    73  ILE73       0.2616
    146  O        -42.6390  -46.6410   93.2590 O.2    73  ILE73      -0.2715
    147  CB       -41.1230  -43.9170   91.9160 C.3    73  ILE73       0.0290
    148  CG1      -40.2740  -44.2500   93.1430 C.3    73  ILE73       0.0022
    149  CG2      -41.2830  -42.4140   91.7660 C.3    73  ILE73       0.0023
    150  CD1      -38.9610  -43.5000   93.1930 C.3    73  ILE73       0.0001
    151  N        -41.7340  -46.7550   91.2030 N.am   74  ALA74      -0.1977
    152  CA       -41.5040  -48.1940   91.2630 C.3    74  ALA74       0.1597
    153  C        -40.1570  -48.5820   90.6620 C.2    74  ALA74       0.2287
    154  O        -39.7550  -48.0590   89.6240 O.2    74  ALA74      -0.2864
    155  CB       -42.6260  -48.9360   90.5580 C.3    74  ALA74       0.0319
    156  N        -44.5920  -52.0660   86.6920 N.3    79  LEU79      -0.1231
    157  CA       -45.5810  -51.6050   87.6560 C.3    79  LEU79       0.1693
    158  C        -46.0060  -50.1760   87.3470 C.2    79  LEU79       0.2591
    159  O        -47.1970  -49.8710   87.2840 O.2    79  LEU79      -0.2718
    160  CB       -45.0210  -51.6850   89.0760 C.3    79  LEU79       0.0284
    161  CG       -45.9790  -51.2620   90.1880 C.3    79  LEU79       0.0019
    162  CD1      -47.3100  -51.9800   90.0360 C.3    79  LEU79       0.0001
    163  CD2      -45.3700  -51.5340   91.5510 C.3    79  LEU79       0.0001
    164  N        -45.0230  -49.3050   87.1560 N.am   80  ALA80      -0.1980
    165  CA       -45.2860  -47.9100   86.8340 C.3    80  ALA80       0.1597
    166  C        -45.9400  -47.7860   85.4630 C.2    80  ALA80       0.2287
    167  O        -46.6330  -46.8100   85.1820 O.2    80  ALA80      -0.2864
    168  CB       -43.9950  -47.1050   86.8820 C.3    80  ALA80       0.0319
    169  N        -49.6580  -47.0010   84.9140 N.3    83  TYR83      -0.1241
    170  CA       -50.1460  -45.6600   85.1940 C.3    83  TYR83       0.1605
    171  C        -49.7530  -44.6850   84.0950 C.2    83  TYR83       0.2264
    172  O        -50.1180  -43.5150   84.1330 O.2    83  TYR83      -0.2867
    173  CB       -49.6180  -45.1850   86.5440 C.3    83  TYR83       0.0534
    174  CG       -49.8930  -46.1450   87.6750 C.ar   83  TYR83      -0.0201
    175  CD1      -51.0550  -46.0500   88.4230 C.ar   83  TYR83      -0.0009
    176  CD2      -48.9920  -47.1510   87.9920 C.ar   83  TYR83      -0.0009
    177  CE1      -51.3120  -46.9280   89.4590 C.ar   83  TYR83       0.0417
    178  CE2      -49.2400  -48.0340   89.0270 C.ar   83  TYR83       0.0417
    179  CZ       -50.4020  -47.9150   89.7560 C.ar   83  TYR83       0.1957
    180  OH       -50.6590  -48.7860   90.7860 O.3    83  TYR83      -0.2866
    181  N        -49.5290  -48.3790  102.4940 N.3   121  ALA121     -0.1245
    182  CA       -50.8200  -47.6930  102.4820 C.3   121  ALA121      0.1562
    183  C        -51.8710  -48.4140  103.3300 C.2   121  ALA121      0.2260
    184  O        -53.0600  -48.3880  103.0150 O.2   121  ALA121     -0.2867
    185  CB       -51.3140  -47.5030  101.0560 C.3   121  ALA121      0.0290
    186  N        -46.9420  -53.0720   96.9610 N.3   148  GLU148     -0.1245
    187  CA       -48.1090  -52.2290   96.7490 C.3   148  GLU148      0.1567
    188  C        -49.3260  -52.9040   97.3680 C.2   148  GLU148      0.2260
    189  O        -50.2350  -52.2440   97.8690 O.2   148  GLU148     -0.2867
    190  CB       -48.3340  -52.0060   95.2560 C.3   148  GLU148      0.0388
    191  CG       -49.5250  -51.1310   94.9280 C.3   148  GLU148      0.1160
    192  CD       -49.9190  -51.2250   93.4710 C.2   148  GLU148      0.3649
    193  OE1      -49.9460  -52.3530   92.9350 O.co2 148  GLU148     -0.2457
    194  OE2      -50.2080  -50.1740   92.8640 O.co2 148  GLU148     -0.2457
    195  N        -43.2200  -50.9910   95.5680 N.3   155  GLU155     -0.1245
    196  CA       -43.4120  -49.5910   95.2130 C.3   155  GLU155      0.1567
    197  C        -42.7210  -48.7110   96.2440 C.2   155  GLU155      0.2260
    198  O        -42.6540  -49.0580   97.4230 O.2   155  GLU155     -0.2867
    199  CB       -44.8980  -49.2420   95.1460 C.3   155  GLU155      0.0388
    200  CG       -45.5800  -49.1850   96.5030 C.3   155  GLU155      0.1160
    201  CD       -46.9690  -48.5840   96.4340 C.2   155  GLU155      0.3649
    202  OE1      -47.5210  -48.4910   95.3190 O.co2 155  GLU155     -0.2457
    203  OE2      -47.5090  -48.2030   97.4950 O.co2 155  GLU155     -0.2457
    204  N        -42.8520  -35.9360  100.1710 N.3   160  TRP160     -0.1241
    205  CA       -42.8940  -34.7660   99.2970 C.3   160  TRP160      0.1605
    206  C        -41.6300  -33.8970   99.3500 C.2   160  TRP160      0.2264
    207  O        -41.1140  -33.5010   98.3050 O.2   160  TRP160     -0.2867
    208  CB       -44.1550  -33.9320   99.5480 C.3   160  TRP160      0.0550
    209  CG       -45.3890  -34.5510   98.9630 C.ar  160  TRP160      0.0003
    210  CD1      -46.4570  -35.0520   99.6440 C.ar  160  TRP160      0.0946
    211  CD2      -45.6700  -34.7500   97.5720 C.ar  160  TRP160      0.0152
    212  NE1      -47.3910  -35.5450   98.7660 N.ar  160  TRP160     -0.2442
    213  CE2      -46.9320  -35.3730   97.4870 C.ar  160  TRP160      0.0810
    214  CE3      -44.9810  -34.4630   96.3910 C.ar  160  TRP160      0.0012
    215  CZ2      -47.5170  -35.7110   96.2680 C.ar  160  TRP160      0.0191
    216  CZ3      -45.5640  -34.7990   95.1810 C.ar  160  TRP160      0.0001
    217  CH2      -46.8200  -35.4160   95.1290 C.ar  160  TRP160      0.0015
@<TRIPOS>BOND
     1    24    23    1
     2    24    25    2
     3    23    26    1
     4    23    22    1
     5    26    27    1
     6    18    17    2
     7    29    27   ar
     8    29    31   ar
     9    33    34    1
    10    27    28   ar
    11    22    17   am
    12    17    16    1
    13    38    39    1
    14    31    32   ar
    15    35    34    1
    16    35    36    2
    17    34    37    1
    18    28    30   ar
    19    15    16    1
    20    15    13   am
    21    16    19    1
    22   171   172    2
    23   171   170    1
    24    39    40    1
    25    39    42    1
    26    21    19    1
    27    32    30   ar
    28   169   170    1
    29    12    13    1
    30    12    11    1
    31    19    20    1
    32    40    44   am
    33    40    41    2
    34    42    43    1
    35    13    14    2
    36   167   166    2
    37   170   173    1
    38    44    45    1
    39     4     3    2
    40   166   165    1
    41    46    45    1
    42    46    47    2
    43    11     3   am
    44    45    48    1
    45     3     2    1
    46    48    49    1
    47    48    50    1
    48   173   174    1
    49   156   157    1
    50   165   168    1
    51   165   164    1
    52    49    51    1
    53     1     2    1
    54   164   158   am
    55   159   158    2
    56   158   157    1
    57    73    71    1
    58     2     5    1
    59    52    53    1
    60     8    10   ar
    61     8     6   ar
    62   157   160    1
    63   174   176   ar
    64   174   175   ar
    65   176   178   ar
    66     5     6    1
    67    10     9   ar
    68     6     7   ar
    69   175   177   ar
    70    71    72    1
    71    71    70    2
    72    53    54    1
    73   178   179   ar
    74   160   161    1
    75    55    54    2
    76    54    56   am
    77   177   179   ar
    78     9     7   ar
    79   154   153    2
    80    70    69    1
    81    83    82    1
    82   179   180    1
    83   162   161    1
    84   161   163    1
    85    56    57    1
    86   130   129   ar
    87   130   128   ar
    88   155   152    1
    89    82    81    2
    90    82    84    1
    91    62    60    1
    92   153   152    1
    93    57    60    1
    94    57    58    1
    95    69    68    1
    96    81    80    1
    97   129   127   ar
    98   128   126   ar
    99   151   152    1
   100   151   145   am
   101    60    61    1
   102    68    67    1
   103   134   133    2
   104   149   147    1
   105   147   144    1
   106   147   148    1
   107   144   145    1
   108   144   143    1
   109    58    63   am
   110    58    59    2
   111    80    79    1
   112    63    64    1
   113   145   146    2
   114   127   125   ar
   115   126   125   ar
   116    67    64    1
   117   194   192   ar
   118   133   143   am
   119   133   132    1
   120   193   192   ar
   121   148   150    1
   122   125   124    1
   123    64    65    1
   124    66    65    2
   125    79    78    1
   126   192   191    1
   127    78    75    1
   128   135   132    1
   129   135   136    1
   130   132   131    1
   131   131   122   am
   132   124   121    1
   133    88    87    2
   134   191   190    1
   135   107   105   ar
   136   122   121    1
   137   122   123    2
   138   217   216   ar
   139   217   215   ar
   140   199   196    1
   141   199   200    1
   142   216   214   ar
   143   196   195    1
   144   196   197    1
   145   190   187    1
   146   121   120    1
   147   106   105   ar
   148   202   201   ar
   149    75    74    1
   150    75    76    1
   151   136   137   ar
   152   136   138   ar
   153   105   104    1
   154    85    76   am
   155    85    86    1
   156   137   139   ar
   157    99    97   am
   158    87    86    1
   159    87    91   am
   160    76    77    2
   161   138   140   ar
   162   197   198    2
   163    96    97    1
   164    96    95    1
   165   215   213   ar
   166   214   211   ar
   167   201   200    1
   168   201   203   ar
   169    89    86    1
   170    89    90    1
   171    92    95    1
   172    92    91    1
   173    92    93    1
   174   119   118    2
   175    97    98    2
   176   104   101    1
   177   120   118   am
   178   187   186    1
   179   187   188    1
   180   100    93   am
   181   100   101    1
   182   139   141   ar
   183   118   117    1
   184   140   141   ar
   185   188   189    2
   186    93    94    2
   187   213   211   ar
   188   213   212   ar
   189   101   102    1
   190   211   209   ar
   191   103   102    2
   192   141   142    1
   193   102   108   am
   194   207   206    2
   195   115   113    1
   196   117   116    1
   197   212   210   ar
   198   209   208    1
   199   209   210   ar
   200   113   112    1
   201   113   114    1
   202   205   206    1
   203   205   208    1
   204   205   204    1
   205   108   109    1
   206   112   109    1
   207   109   110    1
   208   185   182    1
   209   110   111    2
   210   182   181    1
   211   182   183    1
   212   184   183    2
