@<TRIPOS>MOLECULE
tmp/2ziyA00.pdb
 193 190 0 0 0
SMALL
GASTEIGER

@<TRIPOS>ATOM
      1  N         38.6570    8.0900   26.8330 N.3    80  PHE80      -0.1241
      2  CA        39.6020    8.7140   25.9500 C.3    80  PHE80       0.1605
      3  C         40.0940   10.0210   26.5760 C.2    80  PHE80       0.2264
      4  O         41.2280   10.1230   27.0500 O.2    80  PHE80      -0.2867
      5  CB        38.9230    8.9960   24.6260 C.3    80  PHE80       0.0534
      6  CG        39.8330    9.5770   23.6160 C.ar   80  PHE80      -0.0203
      7  CD1       40.5850    8.7560   22.7830 C.ar   80  PHE80      -0.0042
      8  CD2       39.9600   10.9510   23.4970 C.ar   80  PHE80      -0.0042
      9  CE1       41.4650    9.3010   21.8400 C.ar   80  PHE80      -0.0003
     10  CE2       40.8330   11.5110   22.5620 C.ar   80  PHE80      -0.0003
     11  CZ        41.5840   10.6850   21.7290 C.ar   80  PHE80      -0.0000
     12  N         43.7630   10.2890   27.6490 N.3    84  ASN84      -0.1240
     13  CA        44.4490   11.1040   26.6470 C.3    84  ASN84       0.1653
     14  C         44.6300   12.5280   27.0960 C.2    84  ASN84       0.2266
     15  O         45.5310   13.2200   26.6450 O.2    84  ASN84      -0.2867
     16  CB        43.6420   11.1350   25.3730 C.3    84  ASN84       0.1155
     17  CG        43.7460    9.8690   24.6150 C.2    84  ASN84       0.2627
     18  OD1       44.2470    9.8540   23.4960 O.2    84  ASN84      -0.2716
     19  ND2       43.2850    8.7800   25.2140 N.am   84  ASN84      -0.0877
     20  N         48.5650    5.0830   27.2260 N.3   108  TYR108     -0.1227
     21  CA        47.9980    6.3240   26.7690 C.3   108  TYR108      0.1736
     22  C         47.4140    6.0910   25.3880 C.2   108  TYR108      0.2596
     23  O         46.2540    6.3980   25.1290 O.2   108  TYR108     -0.2718
     24  CB        49.0870    7.3700   26.6940 C.3   108  TYR108      0.0548
     25  CG        48.6030    8.6820   26.1700 C.ar  108  TYR108     -0.0200
     26  CD1       48.1840    9.6760   27.0400 C.ar  108  TYR108     -0.0009
     27  CD2       48.5550    8.9320   24.8000 C.ar  108  TYR108     -0.0009
     28  CE1       47.7330   10.8890   26.5680 C.ar  108  TYR108      0.0417
     29  CE2       48.1020   10.1470   24.3130 C.ar  108  TYR108      0.0417
     30  CZ        47.6950   11.1240   25.2080 C.ar  108  TYR108      0.1957
     31  OH        47.2680   12.3490   24.7530 O.3   108  TYR108     -0.2866
     32  N         48.2250    5.4980   24.5200 N.am  109  GLY109     -0.1957
     33  CA        47.8010    5.2300   23.1580 C.3   109  GLY109      0.1869
     34  C         46.7400    4.1610   23.0340 C.2   109  GLY109      0.2309
     35  O         45.6550    4.3910   22.5010 O.2   109  GLY109     -0.2863
     36  N         43.3420    5.5700   23.7410 N.3   112  GLY112     -0.1210
     37  CA        42.9140    6.3500   22.5980 C.3   112  GLY112      0.1956
     38  C         42.6090    5.3730   21.4940 C.2   112  GLY112      0.2612
     39  O         41.5860    5.4790   20.8170 O.2   112  GLY112     -0.2717
     40  N         43.5020    4.4040   21.3360 N.am  113  GLY113     -0.1956
     41  CA        43.3120    3.3920   20.3250 C.3   113  GLY113      0.1869
     42  C         41.9320    2.7580   20.3510 C.2   113  GLY113      0.2309
     43  O         41.1480    2.8680   19.4030 O.2   113  GLY113     -0.2863
     44  N         38.9470    5.1910   19.9370 N.3   116  GLY116     -0.1210
     45  CA        38.8920    6.0280   18.7750 C.3   116  GLY116      0.1956
     46  C         38.0120    5.1000   17.9780 C.2   116  GLY116      0.2611
     47  O         36.9000    5.4470   17.5680 O.2   116  GLY116     -0.2717
     48  N         38.4880    3.8700   17.8240 N.am  117  PHE117     -0.1976
     49  CA        37.7420    2.8730   17.0780 C.3   117  PHE117      0.1639
     50  C         36.3830    2.6650   17.6590 C.2   117  PHE117      0.2290
     51  O         35.4450    2.3790   16.9270 O.2   117  PHE117     -0.2864
     52  CB        38.4330    1.5220   17.0990 C.3   117  PHE117      0.0560
     53  CG        39.8190    1.5530   16.5890 C.ar  117  PHE117     -0.0200
     54  CD1       40.0930    2.0790   15.3480 C.ar  117  PHE117     -0.0042
     55  CD2       40.8660    1.0750   17.3650 C.ar  117  PHE117     -0.0042
     56  CE1       41.3730    2.1300   14.9010 C.ar  117  PHE117     -0.0003
     57  CE2       42.1680    1.1310   16.9030 C.ar  117  PHE117     -0.0003
     58  CZ        42.4190    1.6640   15.6660 C.ar  117  PHE117     -0.0000
     59  N         53.5990    1.8440   19.9590 N.3   174  TYR174     -0.1241
     60  CA        53.1940    3.1820   20.4080 C.3   174  TYR174      0.1605
     61  C         54.4080    3.8770   21.0630 C.2   174  TYR174      0.2264
     62  O         55.0500    3.2720   21.9170 O.2   174  TYR174     -0.2867
     63  CB        52.0790    3.0790   21.4780 C.3   174  TYR174      0.0534
     64  CG        50.7090    2.4840   21.0910 C.ar  174  TYR174     -0.0201
     65  CD1       49.7010    3.2740   20.5330 C.ar  174  TYR174     -0.0009
     66  CD2       50.3940    1.1520   21.3760 C.ar  174  TYR174     -0.0009
     67  CE1       48.4120    2.7530   20.2790 C.ar  174  TYR174      0.0417
     68  CE2       49.1080    0.6280   21.1240 C.ar  174  TYR174      0.0417
     69  CZ        48.1260    1.4350   20.5810 C.ar  174  TYR174      0.1957
     70  OH        46.8570    0.9360   20.3630 O.3   174  TYR174     -0.2866
     71  N         52.6100   14.0670   24.1870 N.3   182  ASN182     -0.1225
     72  CA        51.5510   13.0810   24.1960 C.3   182  ASN182      0.1785
     73  C         52.2830   11.8390   23.7720 C.2   182  ASN182      0.2597
     74  O         53.4990   11.8130   23.8180 O.2   182  ASN182     -0.2718
     75  CB        50.4490   13.4220   23.2010 C.3   182  ASN182      0.1169
     76  CG        50.9110   13.3840   21.8000 C.2   182  ASN182      0.2627
     77  OD1       51.9030   14.0120   21.4560 O.2   182  ASN182     -0.2716
     78  ND2       50.1870   12.6640   20.9600 N.am  182  ASN182     -0.0877
     79  N         51.5540   10.8170   23.3700 N.am  183  CYS183     -0.1956
     80  CA        52.1520    9.5790   22.9290 C.3   183  CYS183      0.1843
     81  C         51.2530    9.2740   21.7680 C.2   183  CYS183      0.2626
     82  O         50.3210   10.0330   21.5610 O.2   183  CYS183     -0.2714
     83  CB        52.1010    8.5500   24.0710 C.3   183  CYS183      0.0997
     84  SG        53.5970    8.7930   25.1010 S.3   183  CYS183     -0.0797
     85  N         51.5280    8.2340   20.9870 N.am  184  SER184     -0.1936
     86  CA        50.6910    7.9190   19.8230 C.3   184  SER184      0.2055
     87  C         51.1540    6.6170   19.1710 C.2   184  SER184      0.2643
     88  O         52.0320    5.9520   19.7200 O.2   184  SER184     -0.2714
     89  CB        50.7680    9.0660   18.8160 C.3   184  SER184      0.2130
     90  OG        49.9900    8.7960   17.6690 O.3   184  SER184     -0.2179
     91  N         50.5720    6.2340   18.0280 N.am  185  PHE185     -0.1973
     92  CA        50.9990    4.9980   17.3460 C.3   185  PHE185      0.1639
     93  C         52.2300    5.2570   16.4690 C.2   185  PHE185      0.2290
     94  O         52.5220    6.4080   16.1370 O.2   185  PHE185     -0.2864
     95  CB        49.8660    4.3990   16.4930 C.3   185  PHE185      0.0560
     96  CG        49.5200    5.1950   15.2590 C.ar  185  PHE185     -0.0200
     97  CD1       48.7490    6.3490   15.3500 C.ar  185  PHE185     -0.0042
     98  CD2       49.9300    4.7660   13.9950 C.ar  185  PHE185     -0.0042
     99  CE1       48.3790    7.0560   14.2010 C.ar  185  PHE185     -0.0003
    100  CE2       49.5700    5.4650   12.8410 C.ar  185  PHE185     -0.0003
    101  CZ        48.7970    6.6090   12.9440 C.ar  185  PHE185     -0.0000
    102  N         45.0240   -1.0920   10.6580 N.3   201  MET201     -0.1182
    103  CA        44.4500   -0.0070   11.4460 C.3   201  MET201      0.1917
    104  C         43.5350    0.8620   10.5830 C.2   201  MET201      0.2634
    105  O         42.3720    1.0550   10.9240 O.2   201  MET201     -0.2714
    106  CB        45.5560    0.8510   12.0950 C.2   201  MET201      0.0083
    107  CG        46.0580    0.3510   13.4900 C.2   201  MET201      0.0282
    108  SD        47.2100    1.4740   14.4180 S.3   201  MET201     -0.1125
    109  CE        47.1910    0.8260   16.0960 C.3   201  MET201      0.0742
    110  N         44.0540    1.3720    9.4660 N.am  202  PHE202     -0.1973
    111  CA        43.2690    2.2050    8.5490 C.3   202  PHE202      0.1639
    112  C         42.0590    1.5090    7.8970 C.2   202  PHE202      0.2290
    113  O         40.9400    2.0420    7.8930 O.2   202  PHE202     -0.2864
    114  CB        44.1570    2.7490    7.4350 C.3   202  PHE202      0.0560
    115  CG        44.8410    4.0230    7.7780 C.ar  202  PHE202     -0.0200
    116  CD1       45.9140    4.0420    8.6550 C.ar  202  PHE202     -0.0042
    117  CD2       44.4120    5.2170    7.2190 C.ar  202  PHE202     -0.0042
    118  CE1       46.5560    5.2420    8.9730 C.ar  202  PHE202     -0.0003
    119  CE2       45.0440    6.4180    7.5290 C.ar  202  PHE202     -0.0003
    120  CZ        46.1200    6.4310    8.4090 C.ar  202  PHE202     -0.0000
    121  N         40.1130   -0.6010   11.3680 N.3   205  GLY205     -0.1210
    122  CA        39.5600    0.1970   12.4510 C.3   205  GLY205      0.1956
    123  C         38.9100    1.4870   12.0050 C.2   205  GLY205      0.2611
    124  O         38.2870    2.1810   12.8080 O.2   205  GLY205     -0.2717
    125  N         39.0110    1.7840   10.7140 N.am  206  PHE206     -0.1976
    126  CA        38.4760    3.0300   10.1940 C.3   206  PHE206      0.1639
    127  C         37.6630    3.0180    8.9010 C.2   206  PHE206      0.2290
    128  O         36.5330    3.4880    8.8590 O.2   206  PHE206     -0.2864
    129  CB        39.6250    3.9750   10.0270 C.3   206  PHE206      0.0560
    130  CG        39.2240    5.2880    9.5480 C.ar  206  PHE206     -0.0200
    131  CD1       38.5620    6.1680   10.3870 C.ar  206  PHE206     -0.0042
    132  CD2       39.5160    5.6580    8.2620 C.ar  206  PHE206     -0.0042
    133  CE1       38.1970    7.4070    9.9400 C.ar  206  PHE206     -0.0003
    134  CE2       39.1590    6.8860    7.8050 C.ar  206  PHE206     -0.0003
    135  CZ        38.4990    7.7710    8.6380 C.ar  206  PHE206     -0.0000
    136  N         33.2950   13.4230   13.6380 N.3   267  PHE267     -0.1241
    137  CA        34.3770   12.4470   13.7070 C.3   267  PHE267      0.1605
    138  C         35.2780   12.4490   12.4890 C.2   267  PHE267      0.2264
    139  O         36.4910   12.4710   12.6190 O.2   267  PHE267     -0.2867
    140  CB        33.8130   11.0400   13.8800 C.3   267  PHE267      0.0534
    141  CG        34.8520   10.0010   14.1690 C.ar  267  PHE267     -0.0203
    142  CD1       35.2590    9.7520   15.4750 C.ar  267  PHE267     -0.0042
    143  CD2       35.4310    9.2760   13.1330 C.ar  267  PHE267     -0.0042
    144  CE1       36.2290    8.7950   15.7460 C.ar  267  PHE267     -0.0003
    145  CE2       36.3970    8.3220   13.3890 C.ar  267  PHE267     -0.0003
    146  CZ        36.7980    8.0800   14.7010 C.ar  267  PHE267     -0.0000
    147  N         39.6090   13.6040   12.7730 N.3   271  TRP271     -0.1241
    148  CA        40.6600   12.6240   12.7090 C.3   271  TRP271      0.1605
    149  C         41.4190   12.6450   11.3850 C.2   271  TRP271      0.2264
    150  O         42.6380   12.8260   11.3730 O.2   271  TRP271     -0.2867
    151  CB        40.1050   11.2340   12.9990 C.3   271  TRP271      0.0550
    152  CG        39.8350   10.9880   14.4440 C.ar  271  TRP271      0.0003
    153  CD1       38.6260   10.8100   15.0280 C.ar  271  TRP271      0.0946
    154  CD2       40.8040   10.8300   15.4810 C.ar  271  TRP271      0.0152
    155  NE1       38.7760   10.5390   16.3690 N.ar  271  TRP271     -0.2442
    156  CE2       40.1120   10.5450   16.6680 C.ar  271  TRP271      0.0810
    157  CE3       42.1910   10.9050   15.5220 C.ar  271  TRP271      0.0012
    158  CZ2       40.7670   10.3190   17.8790 C.ar  271  TRP271      0.0191
    159  CZ3       42.8450   10.6760   16.7280 C.ar  271  TRP271      0.0001
    160  CH2       42.1330   10.3870   17.8820 C.ar  271  TRP271      0.0015
    161  N         44.8920   14.6030   10.6980 N.3   274  TYR274     -0.1227
    162  CA        46.0200   13.9480   11.3370 C.3   274  TYR274      0.1736
    163  C         46.2010   12.6720   10.5120 C.2   274  TYR274      0.2595
    164  O         47.2730   12.4250    9.9600 O.2   274  TYR274     -0.2718
    165  CB        45.6750   13.6240   12.7990 C.3   274  TYR274      0.0548
    166  CG        46.6940   12.7830   13.5800 C.ar  274  TYR274     -0.0200
    167  CD1       47.8310   13.3590   14.1480 C.ar  274  TYR274     -0.0009
    168  CD2       46.4900   11.4120   13.7870 C.ar  274  TYR274     -0.0009
    169  CE1       48.7330   12.5920   14.9050 C.ar  274  TYR274      0.0417
    170  CE2       47.3840   10.6440   14.5430 C.ar  274  TYR274      0.0417
    171  CZ        48.5000   11.2440   15.0980 C.ar  274  TYR274      0.1957
    172  OH        49.3800   10.5130   15.8600 O.3   274  TYR274     -0.2866
    173  N         45.1270   11.8970   10.3920 N.am  275  ALA275     -0.1980
    174  CA        45.1580   10.6500    9.6430 C.3   275  ALA275      0.1597
    175  C         45.9680   10.8070    8.3690 C.2   275  ALA275      0.2287
    176  O         46.7900    9.9580    8.0190 O.2   275  ALA275     -0.2864
    177  CB        43.7440   10.2160    9.3070 C.3   275  ALA275      0.0319
    178  N         46.9470   16.5100   15.5240 N.3   298  VAL298     -0.1245
    179  CA        46.5500   15.4400   16.4150 C.3   298  VAL298      0.1561
    180  C         45.7170   16.0170   17.5440 C.2   298  VAL298      0.2260
    181  O         45.0610   15.2800   18.2630 O.2   298  VAL298     -0.2867
    182  CB        47.7580   14.7040   17.0050 C.3   298  VAL298      0.0252
    183  CG1       48.4750   15.5770   17.9940 C.3   298  VAL298      0.0019
    184  CG2       47.2980   13.4100   17.6600 C.3   298  VAL298      0.0019
    185  N         42.0210   14.5500   18.8590 N.3   302  LYS302     -0.1245
    186  CA        41.7680   14.0270   20.1970 C.3   302  LYS302      0.1561
    187  C         40.4910   14.7180   20.6250 C.2   302  LYS302      0.2260
    188  O         39.6110   14.0920   21.2110 O.2   302  LYS302     -0.2867
    189  CB        42.8870   14.3860   21.1680 C.3   302  LYS302      0.0271
    190  CG        44.1050   13.5300   20.9530 C.3   302  LYS302      0.0035
    191  CD        45.0730   13.7950   22.1000 C.3   302  LYS302      0.0206
    192  CE        46.5350   13.3630   21.9610 C.3   302  LYS302      0.1093
    193  NZ        46.9420   11.9650   21.9060 N.3   302  LYS302     -0.1314
@<TRIPOS>BOND
     1   117   119   ar
     2   117   115   ar
     3   114   115    1
     4   114   111    1
     5   119   120   ar
     6   115   116   ar
     7   134   132   ar
     8   134   135   ar
     9   113   112    2
    10   112   111    1
    11   176   175    2
    12   132   130   ar
    13   175   174    1
    14   120   118   ar
    15   111   110    1
    16   135   133   ar
    17   116   118   ar
    18   128   127    2
    19   127   126    1
    20   177   174    1
    21   110   104   am
    22   130   129    1
    23   130   131   ar
    24   174   173    1
    25   133   131   ar
    26   164   163    2
    27   129   126    1
    28   126   125    1
    29   173   163   am
    30   163   162    1
    31   104   105    2
    32   104   103    1
    33   102   103    1
    34   161   162    1
    35   125   123   am
    36   162   165    1
    37   121   122    1
    38   150   149    2
    39   149   148    1
    40   103   106    1
    41   123   122    1
    42   123   124    2
    43   106   107    2
    44   138   139    2
    45   138   137    1
    46   148   147    1
    47   148   151    1
    48   165   166    1
    49   100   101   ar
    50   100    98   ar
    51   101    99   ar
    52   151   152    1
    53   143   145   ar
    54   143   141   ar
    55   145   146   ar
    56   107   108    1
    57   166   168   ar
    58   166   167   ar
    59   136   137    1
    60   137   140    1
    61   168   170   ar
    62   140   141    1
    63    98    96   ar
    64   167   169   ar
    65   141   142   ar
    66    99    97   ar
    67   108   109    1
    68   152   153   ar
    69   152   154   ar
    70   170   171   ar
    71   146   144   ar
    72    56    54   ar
    73    56    58   ar
    74   169   171   ar
    75   153   155   ar
    76   171   172    1
    77    96    97   ar
    78    96    95    1
    79    54    53   ar
    80   142   144   ar
    81   154   157   ar
    82   154   156   ar
    83   157   159   ar
    84   178   179    1
    85    58    57   ar
    86    94    93    2
    87   155   156   ar
    88   179   182    1
    89   179   180    1
    90    93    92    1
    91    95    92    1
    92    53    52    1
    93    53    55   ar
    94   156   158   ar
    95   159   160   ar
    96    57    55   ar
    97    51    50    2
    98   182   184    1
    99   182   183    1
   100    49    52    1
   101    49    50    1
   102    49    48    1
   103    92    91    1
   104   180   181    2
   105    47    46    2
   106    90    89    1
   107    48    46   am
   108   158   160   ar
   109    46    45    1
   110    91    87   am
   111    45    44    1
   112    89    86    1
   113   185   186    1
   114    87    88    2
   115    87    86    1
   116    43    42    2
   117    86    85    1
   118    59    60    1
   119   186   187    1
   120   186   189    1
   121    67    65   ar
   122    67    69   ar
   123    41    42    1
   124    41    40    1
   125    70    69    1
   126    60    61    1
   127    60    63    1
   128    65    64   ar
   129    69    68   ar
   130   187   188    2
   131    39    38    2
   132   190   189    1
   133   190   191    1
   134    78    76   am
   135    85    81   am
   136    61    62    2
   137    64    66   ar
   138    64    63    1
   139    68    66   ar
   140    40    38   am
   141    77    76    2
   142    38    37    1
   143    82    81    2
   144    11     9   ar
   145    11    10   ar
   146    81    80    1
   147    76    75    1
   148     9     7   ar
   149   193   192    1
   150   192   191    1
   151    35    34    2
   152    10     8   ar
   153    37    36    1
   154     7     6   ar
   155    80    79    1
   156    80    83    1
   157    34    33    1
   158    33    32    1
   159    75    72    1
   160    79    73   am
   161    18    17    2
   162     8     6   ar
   163     6     5    1
   164    73    74    2
   165    73    72    1
   166    83    84    1
   167    71    72    1
   168    29    27   ar
   169    29    30   ar
   170    32    22   am
   171    17    19   am
   172    17    16    1
   173     5     2    1
   174    31    30    1
   175    27    25   ar
   176    23    22    2
   177    30    28   ar
   178    16    13    1
   179    22    21    1
   180     2     3    1
   181     2     1    1
   182    25    24    1
   183    25    26   ar
   184    28    26   ar
   185     3     4    2
   186    15    14    2
   187    13    14    1
   188    13    12    1
   189    24    21    1
   190    21    20    1
