@<TRIPOS>MOLECULE
tmp/2zizB01.pdb
 168 159 0 0 0
SMALL
GASTEIGER

@<TRIPOS>ATOM
      1  N         43.0140   13.1250   63.7810 N.3    58  LEU58      -0.1231
      2  CA        41.9880   12.9930   62.7660 C.3    58  LEU58       0.1693
      3  C         42.5320   13.2610   61.3800 C.2    58  LEU58       0.2592
      4  O         43.1100   14.3190   61.1400 O.2    58  LEU58      -0.2718
      5  CB        40.8180   13.9490   63.0940 C.3    58  LEU58       0.0284
      6  CG        39.4790   13.8150   62.3420 C.3    58  LEU58       0.0019
      7  CD1       39.1630   12.4110   61.9010 C.3    58  LEU58       0.0001
      8  CD2       38.3550   14.3520   63.1590 C.3    58  LEU58       0.0001
      9  N         42.3370   12.3470   60.4580 N.am   59  HIS59      -0.1976
     10  CA        42.8190   12.5600   59.1180 C.3    59  HIS59       0.1656
     11  C         42.8110   14.0260   58.8120 C.2    59  HIS59       0.2291
     12  O         41.8240   14.6650   58.9820 O.2    59  HIS59      -0.2864
     13  CB        41.9500   11.8500   58.1340 C.3    59  HIS59       0.0771
     14  CG        41.6510   10.4430   58.4990 C.ar   59  HIS59       0.0820
     15  ND1       42.4640    9.3990   58.1400 N.ar   59  HIS59      -0.2267
     16  CD2       40.6220    9.9010   59.1740 C.ar   59  HIS59       0.1154
     17  CE1       41.9450    8.2740   58.5710 C.ar   59  HIS59       0.1986
     18  NE2       40.8260    8.5520   59.1970 N.ar   59  HIS59      -0.2212
     19  N         42.3740   16.4680   56.5150 N.3    61  THR61      -0.1218
     20  CA        41.7150   16.7370   55.2260 C.3    61  THR61       0.1862
     21  C         41.1130   18.1230   55.2050 C.2    61  THR61       0.2287
     22  O         40.9430   18.7420   56.2370 O.2    61  THR61      -0.2866
     23  CB        40.4810   15.7510   54.9870 C.3    61  THR61       0.1770
     24  OG1       39.5130   15.9170   56.0550 O.3    61  THR61      -0.2211
     25  CG2       40.9910   14.3210   54.8860 C.3    61  THR61       0.0375
     26  N         38.1140   18.5840   54.8600 N.3    63  GLN63      -0.1231
     27  CA        36.9340   18.4730   55.6910 C.3    63  GLN63       0.1698
     28  C         37.2480   18.6130   57.1490 C.2    63  GLN63       0.2592
     29  O         36.4990   19.2710   57.8720 O.2    63  GLN63      -0.2718
     30  CB        36.2190   17.1350   55.4640 C.3    63  GLN63       0.0381
     31  CG        35.5810   17.0940   54.1240 C.3    63  GLN63       0.0905
     32  CD        36.5480   16.9510   53.0450 C.2    63  GLN63       0.2608
     33  OE1       37.4450   16.1110   53.0990 O.2    63  GLN63      -0.2717
     34  NE2       36.3580   17.7290   52.0040 N.am   63  GLN63      -0.0878
     35  N         38.2820   17.9040   57.5940 N.am   64  THR64      -0.1953
     36  CA        38.7290   18.0070   59.0080 C.3    64  THR64       0.1897
     37  C         39.1960   19.4280   59.2590 C.2    64  THR64       0.2313
     38  O         39.0720   19.9440   60.3810 O.2    64  THR64      -0.2863
     39  CB        39.9180   17.0680   59.2730 C.3    64  THR64       0.1794
     40  OG1       39.4110   15.7580   59.4520 O.3    64  THR64      -0.2208
     41  CG2       40.6900   17.4620   60.4950 C.3    64  THR64       0.0378
     42  N         40.1420    9.5120   66.4250 N.3   146  ASP146     -0.1239
     43  CA        39.6320    8.7800   65.2810 C.3   146  ASP146      0.1674
     44  C         40.4340    7.4830   65.1570 C.2   146  ASP146      0.2266
     45  O         41.4570    7.4090   64.4820 O.2   146  ASP146     -0.2867
     46  CB        39.6490    9.6610   64.0290 C.3   146  ASP146      0.1410
     47  CG        39.2300    8.9260   62.7330 C.2   146  ASP146      0.3668
     48  OD1       39.0940    9.6420   61.7230 O.co2 146  ASP146     -0.2456
     49  OD2       39.0520    7.6820   62.6810 O.co2 146  ASP146     -0.2456
     50  N         35.3620    8.8800   66.8230 N.3   208  GLU208     -0.1231
     51  CA        34.6510    9.1410   65.6000 C.3   208  GLU208      0.1699
     52  C         34.3220    7.8400   64.8220 C.2   208  GLU208      0.2592
     53  O         33.2820    7.7730   64.1560 O.2   208  GLU208     -0.2718
     54  CB        35.4690   10.1550   64.8050 C.3   208  GLU208      0.0402
     55  CG        34.6940   10.9820   63.7630 C.3   208  GLU208      0.1161
     56  CD        34.8840   10.3740   62.4310 C.2   208  GLU208      0.3649
     57  OE1       35.6700    9.4190   62.3910 O.co2 208  GLU208     -0.2457
     58  OE2       34.2550   10.7980   61.4420 O.co2 208  GLU208     -0.2457
     59  N         35.1720    6.8050   64.9430 N.am  209  THR209     -0.1953
     60  CA        34.9920    5.5870   64.1640 C.3   209  THR209      0.1897
     61  C         34.8340    4.2470   64.9450 C.2   209  THR209      0.2313
     62  O         35.2750    4.1090   66.0840 O.2   209  THR209     -0.2863
     63  CB        36.1000    5.4380   63.0890 C.3   209  THR209      0.1794
     64  OG1       35.6510    4.5170   62.0880 O.3   209  THR209     -0.2208
     65  CG2       37.4070    4.9520   63.7110 C.3   209  THR209      0.0378
     66  N         26.0170    9.8120   61.9630 N.3   238  LYS238     -0.1245
     67  CA        27.3570    9.3850   61.5970 C.3   238  LYS238      0.1561
     68  C         27.3130    7.9970   60.9480 C.2   238  LYS238      0.2260
     69  O         27.3550    7.9060   59.7160 O.2   238  LYS238     -0.2867
     70  CB        28.3230    9.4860   62.7940 C.3   238  LYS238      0.0271
     71  CG        29.7860    9.6040   62.4550 C.3   238  LYS238      0.0035
     72  CD        30.3030    8.3570   61.7590 C.3   238  LYS238      0.0206
     73  CE        31.7580    8.2310   61.8730 C.3   238  LYS238      0.1093
     74  NZ        32.1840    7.0070   61.1090 N.3   238  LYS238     -0.1314
     75  N         27.8490    8.4150   57.1690 N.3   242  ASP242     -0.1225
     76  CA        29.2870    8.4440   56.8920 C.3   242  ASP242      0.1805
     77  C         29.7810    7.1040   56.4460 C.2   242  ASP242      0.2597
     78  O         30.3080    6.9480   55.3260 O.2   242  ASP242     -0.2718
     79  CB        30.0400    8.7950   58.1860 C.3   242  ASP242      0.1424
     80  CG        31.5580    8.8920   57.9950 C.2   242  ASP242      0.3668
     81  OD1       32.1960    7.9480   57.4690 O.co2 242  ASP242     -0.2456
     82  OD2       32.1070    9.9320   58.3900 O.co2 242  ASP242     -0.2456
     83  N         29.7060    6.1450   57.3630 N.am  243  ASN243     -0.1974
     84  CA        30.2250    4.8100   57.0720 C.3   243  ASN243      0.1688
     85  C         29.6160    4.2440   55.8160 C.2   243  ASN243      0.2292
     86  O         30.3300    3.5850   55.0420 O.2   243  ASN243     -0.2864
     87  CB        29.9570    3.8310   58.2070 C.3   243  ASN243      0.1181
     88  CG        30.4610    4.3410   59.5700 C.2   243  ASN243      0.2629
     89  OD1       30.4060    5.5200   59.8680 O.2   243  ASN243     -0.2716
     90  ND2       30.9330    3.4360   60.3870 N.am  243  ASN243     -0.0877
     91  N         38.8220   -0.5010   55.9460 N.3   352  GLY352     -0.1210
     92  CA        38.5310   -0.6150   57.3840 C.3   352  GLY352      0.1956
     93  C         39.0480    0.6090   58.1160 C.2   352  GLY352      0.2611
     94  O         38.8490    1.7270   57.6460 O.2   352  GLY352     -0.2717
     95  N         39.7090    0.4470   59.2510 N.am  353  HIS353     -0.1975
     96  CA        40.4390    1.6080   59.8220 C.3   353  HIS353      0.1656
     97  C         41.9940    1.3740   59.9370 C.2   353  HIS353      0.2291
     98  O         42.8160    2.2530   59.5420 O.2   353  HIS353     -0.2864
     99  CB        39.7670    2.1370   61.1050 C.3   353  HIS353      0.0771
    100  CG        40.5860    3.1600   61.8410 C.ar  353  HIS353      0.0820
    101  ND1       41.0520    4.3160   61.2490 N.ar  353  HIS353     -0.2267
    102  CD2       41.0320    3.1930   63.1210 C.ar  353  HIS353      0.1154
    103  CE1       41.7430    5.0180   62.1300 C.ar  353  HIS353      0.1986
    104  NE2       41.7490    4.3570   63.2740 N.ar  353  HIS353     -0.2212
    105  N         43.6170    2.4560   54.8350 N.3   397  LEU397     -0.1245
    106  CA        42.3700    3.0360   54.3220 C.3   397  LEU397      0.1561
    107  C         42.6260    3.7200   53.0200 C.2   397  LEU397      0.2260
    108  O         43.1380    4.8270   53.0180 O.2   397  LEU397     -0.2867
    109  CB        41.7560    4.1120   55.2090 C.3   397  LEU397      0.0270
    110  CG        41.8860    4.2930   56.7000 C.3   397  LEU397      0.0019
    111  CD1       43.1030    5.1410   56.8330 C.3   397  LEU397      0.0001
    112  CD2       40.6940    5.0940   57.1270 C.3   397  LEU397      0.0001
    113  N         40.6300    4.9290   50.7310 N.3   399  ASN399     -0.1225
    114  CA        39.7460    6.0250   50.3530 C.3   399  ASN399      0.1785
    115  C         40.4700    7.3460   50.6340 C.2   399  ASN399      0.2597
    116  O         40.5800    8.2000   49.7550 O.2   399  ASN399     -0.2718
    117  CB        38.3370    5.9250   51.0400 C.3   399  ASN399      0.1169
    118  CG        38.3880    6.0820   52.5430 C.2   399  ASN399      0.2627
    119  OD1       39.3780    5.7660   53.1370 O.2   399  ASN399     -0.2716
    120  ND2       37.2930    6.5480   53.1700 N.am  399  ASN399     -0.0877
    121  N         41.0110    7.4540   51.8430 N.am  400  LEU400     -0.1980
    122  CA        41.8860    8.5490   52.2560 C.3   400  LEU400      0.1596
    123  C         43.2920    8.5030   51.6840 C.2   400  LEU400      0.2287
    124  O         43.8850    9.5300   51.4650 O.2   400  LEU400     -0.2864
    125  CB        41.9310    8.5780   53.7740 C.3   400  LEU400      0.0297
    126  CG        40.5830    9.0500   54.3400 C.3   400  LEU400      0.0022
    127  CD1       40.4080    8.4710   55.6680 C.3   400  LEU400      0.0001
    128  CD2       40.5310   10.5620   54.4490 C.3   400  LEU400      0.0001
    129  N         40.6780   11.2320   48.3270 N.3   404  THR404     -0.1203
    130  CA        40.4570   12.2800   49.3190 C.3   404  THR404      0.1994
    131  C         39.5200   11.9270   50.4480 C.2   404  THR404      0.2618
    132  O         39.0600   12.8310   51.1480 O.2   404  THR404     -0.2717
    133  CB        39.9390   13.5900   48.6900 C.3   404  THR404      0.1784
    134  OG1       38.5610   13.4370   48.2830 O.3   404  THR404     -0.2211
    135  CG2       40.8340   14.0260   47.5130 C.3   404  THR404      0.0376
    136  N         39.2200   10.6390   50.6320 N.am  405  GLY405     -0.1942
    137  CA        38.2030   10.2550   51.6370 C.3   405  GLY405      0.2014
    138  C         36.8150   10.7570   51.2930 C.2   405  GLY405      0.2638
    139  O         36.5460   11.0840   50.1130 O.2   405  GLY405     -0.2714
    140  N         35.9350   10.8330   52.3010 N.am  406  HIS406     -0.1973
    141  CA        34.5190   11.1980   52.1000 C.3   406  HIS406      0.1656
    142  C         34.2950   12.6570   51.7760 C.2   406  HIS406      0.2291
    143  O         35.0760   13.5270   52.1830 O.2   406  HIS406     -0.2864
    144  CB        33.6480   10.8990   53.3090 C.3   406  HIS406      0.0771
    145  CG        33.6400    9.4690   53.7380 C.ar  406  HIS406      0.0820
    146  ND1       33.1540    9.0840   54.9660 N.ar  406  HIS406     -0.2267
    147  CD2       34.1060    8.3420   53.1420 C.ar  406  HIS406      0.1154
    148  CE1       33.2920    7.7720   55.0950 C.ar  406  HIS406      0.1986
    149  NE2       33.8610    7.3040   54.0000 N.ar  406  HIS406     -0.2212
    150  N         30.8640   14.6500   55.3420 N.3   411  MET411     -0.1245
    151  CA        31.5960   14.8780   56.6010 C.3   411  MET411      0.1570
    152  C         30.9210   15.9440   57.4200 C.2   411  MET411      0.2261
    153  O         31.0970   16.0220   58.6500 O.2   411  MET411     -0.2867
    154  CB        33.0720   15.2310   56.3680 C.3   411  MET411      0.0387
    155  CG        33.9000   14.1210   55.8010 C.3   411  MET411      0.0595
    156  SD        33.5910   12.5000   56.5260 S.3   411  MET411     -0.1393
    157  CE        33.9410   12.7930   58.2700 C.3   411  MET411      0.0692
    158  N         30.9360   15.5200   61.4520 N.3   415  PHE415     -0.1241
    159  CA        31.5080   16.6780   62.1850 C.3   415  PHE415      0.1605
    160  C         30.5570   17.6280   62.9140 C.2   415  PHE415      0.2264
    161  O         30.9310   18.1870   63.9480 O.2   415  PHE415     -0.2867
    162  CB        32.4710   17.4430   61.2900 C.3   415  PHE415      0.0534
    163  CG        33.6680   16.6470   60.9390 C.ar  415  PHE415     -0.0203
    164  CD1       34.0260   15.5520   61.7080 C.ar  415  PHE415     -0.0042
    165  CD2       34.4490   16.9860   59.8590 C.ar  415  PHE415     -0.0042
    166  CE1       35.1280   14.7810   61.3860 C.ar  415  PHE415     -0.0003
    167  CE2       35.5310   16.2410   59.5410 C.ar  415  PHE415     -0.0003
    168  CZ        35.8980   15.1400   60.3130 C.ar  415  PHE415     -0.0000
@<TRIPOS>BOND
     1   135   133    1
     2   134   133    1
     3   129   130    1
     4   133   130    1
     5   130   131    1
     6   116   115    2
     7   139   138    2
     8   114   115    1
     9   114   113    1
    10   114   117    1
    11   131   136   am
    12   131   132    2
    13   136   137    1
    14   115   121   am
    15   117   118    1
    16   138   137    1
    17   138   140   am
    18   124   123    2
    19   123   122    1
    20   142   141    1
    21   142   143    2
    22   121   122    1
    23    34    32   am
    24   141   140    1
    25   141   144    1
    26   122   125    1
    27   118   119    2
    28   118   120   am
    29   108   107    2
    30   107   106    1
    31    32    33    2
    32    32    31    1
    33   147   145   ar
    34   147   149   ar
    35   144   145    1
    36   145   146   ar
    37   125   126    1
    38   149   148   ar
    39    31    30    1
    40   106   105    1
    41   106   109    1
    42   126   128    1
    43   126   127    1
    44    26    27    1
    45    25    23    1
    46   146   148   ar
    47    23    20    1
    48    23    24    1
    49    86    85    2
    50    21    20    1
    51    21    22    2
    52   109   110    1
    53    20    19    1
    54    78    77    2
    55   150   151    1
    56    30    27    1
    57    27    28    1
    58   155   154    1
    59   155   156    1
    60    85    84    1
    61    91    92    1
    62   154   151    1
    63    77    76    1
    64    77    83   am
    65   156   157    1
    66   151   152    1
    67   110   111    1
    68   110   112    1
    69    76    75    1
    70    76    79    1
    71    84    83    1
    72    84    87    1
    73    28    35   am
    74    28    29    2
    75    92    93    1
    76   152   153    2
    77    81    80   ar
    78    35    36    1
    79    94    93    2
    80    80    79    1
    81    80    82   ar
    82    93    95   am
    83    13    14    1
    84    13    10    1
    85    15    14   ar
    86    15    17   ar
    87    87    88    1
    88    14    16   ar
    89    17    18   ar
    90    11    12    2
    91    11    10    1
    92    36    37    1
    93    36    39    1
    94    10     9    1
    95    16    18   ar
    96    95    96    1
    97    37    38    2
    98    39    40    1
    99    39    41    1
   100   167   165   ar
   101   167   168   ar
   102    98    97    2
   103    88    89    2
   104    88    90   am
   105    69    68    2
   106    96    97    1
   107    96    99    1
   108   165   163   ar
   109   168   166   ar
   110     9     3   am
   111   163   162    1
   112   163   164   ar
   113    68    67    1
   114    99   100    1
   115    74    73    1
   116     4     3    2
   117   101   100   ar
   118   101   103   ar
   119   162   159    1
   120     3     2    1
   121   166   164   ar
   122    58    56   ar
   123   158   159    1
   124    67    66    1
   125    67    70    1
   126    48    47   ar
   127    72    73    1
   128    72    71    1
   129   100   102   ar
   130     7     6    1
   131    64    63    1
   132   103   104   ar
   133   159   160    1
   134     6     5    1
   135     6     8    1
   136    57    56   ar
   137    56    55    1
   138    71    70    1
   139    49    47   ar
   140    47    46    1
   141     2     5    1
   142     2     1    1
   143   160   161    2
   144    63    65    1
   145    63    60    1
   146   102   104   ar
   147    55    54    1
   148    46    43    1
   149    53    52    2
   150    60    59    1
   151    60    61    1
   152    45    44    2
   153    54    51    1
   154    52    59   am
   155    52    51    1
   156    61    62    2
   157    44    43    1
   158    43    42    1
   159    51    50    1
