@<TRIPOS>MOLECULE
tmp/2zj0A00.pdb
 168 159 0 0 0
SMALL
GASTEIGER

@<TRIPOS>ATOM
      1  N         60.4090  -12.8490   49.7330 N.3    59  LEU59      -0.1231
      2  CA        59.4780  -12.6720   48.6070 C.3    59  LEU59       0.1693
      3  C         58.1120  -13.0940   49.0920 C.2    59  LEU59       0.2592
      4  O         57.9830  -14.1170   49.7780 O.2    59  LEU59      -0.2718
      5  CB        59.8720  -13.6240   47.4900 C.3    59  LEU59       0.0284
      6  CG        59.6800  -13.3770   46.0020 C.3    59  LEU59       0.0019
      7  CD1       60.0110  -14.7010   45.3080 C.3    59  LEU59       0.0001
      8  CD2       58.3110  -12.8700   45.5720 C.3    59  LEU59       0.0001
      9  N         57.1000  -12.3540   48.7140 N.am   60  HIS60      -0.1976
     10  CA        55.7510  -12.6300   49.1130 C.3    60  HIS60       0.1656
     11  C         55.4300  -14.1000   49.1680 C.2    60  HIS60       0.2291
     12  O         55.6080  -14.7830   48.2310 O.2    60  HIS60      -0.2864
     13  CB        54.7980  -11.9200   48.1880 C.3    60  HIS60       0.0771
     14  CG        55.1490  -10.4990   47.9290 C.ar   60  HIS60       0.0820
     15  ND1       54.9750   -9.5150   48.8650 N.ar   60  HIS60      -0.2267
     16  CD2       55.6680   -9.8920   46.8500 C.ar   60  HIS60       0.1154
     17  CE1       55.3690   -8.3670   48.3760 C.ar   60  HIS60       0.1986
     18  NE2       55.7910   -8.5690   47.1530 N.ar   60  HIS60      -0.2212
     19  N         53.2620  -16.4610   48.5750 N.3    62  THR62      -0.1218
     20  CA        52.0550  -16.7450   47.8070 C.3    62  THR62       0.1862
     21  C         52.0380  -18.1400   47.1960 C.2    62  THR62       0.2287
     22  O         53.0300  -18.8600   47.2350 O.2    62  THR62      -0.2866
     23  CB        51.9480  -15.7570   46.6490 C.3    62  THR62       0.1770
     24  OG1       53.0450  -15.9710   45.7400 O.3    62  THR62      -0.2211
     25  CG2       51.9340  -14.3110   47.1630 C.3    62  THR62       0.0375
     26  N         52.0780  -18.6170   43.9870 N.3    64  GLN64      -0.1231
     27  CA        53.0890  -18.4640   42.9350 C.3    64  GLN64       0.1698
     28  C         54.4880  -18.5930   43.4900 C.2    64  GLN64       0.2592
     29  O         55.3600  -19.1730   42.8500 O.2    64  GLN64      -0.2718
     30  CB        52.9820  -17.0980   42.2520 C.3    64  GLN64       0.0381
     31  CG        51.6740  -16.8130   41.5680 C.3    64  GLN64       0.0905
     32  CD        50.4820  -16.8210   42.4880 C.2    64  GLN64       0.2608
     33  OE1       50.4470  -16.1200   43.5040 O.2    64  GLN64      -0.2717
     34  NE2       49.4770  -17.6080   42.1260 N.am   64  GLN64      -0.0878
     35  N         54.7240  -18.0460   44.6740 N.am   65  THR65      -0.1953
     36  CA        56.0540  -18.1960   45.3060 C.3    65  THR65       0.1897
     37  C         56.3280  -19.6420   45.6950 C.2    65  THR65       0.2313
     38  O         57.4290  -20.1520   45.4900 O.2    65  THR65      -0.2863
     39  CB        56.2000  -17.2810   46.5140 C.3    65  THR65       0.1794
     40  OG1       56.1710  -15.9210   46.0500 O.3    65  THR65      -0.2208
     41  CG2       57.5440  -17.5550   47.2700 C.3    65  THR65       0.0378
     42  N         63.2080   -9.5890   47.0750 N.3   147  ASP147     -0.1239
     43  CA        62.1830   -8.7270   46.5110 C.3   147  ASP147      0.1674
     44  C         62.1120   -7.4860   47.4040 C.2   147  ASP147      0.2266
     45  O         61.5030   -7.5380   48.4890 O.2   147  ASP147     -0.2867
     46  CB        60.8520   -9.4490   46.5320 C.3   147  ASP147      0.1410
     47  CG        59.7760   -8.7700   45.6920 C.2   147  ASP147      0.3668
     48  OD1       59.7510   -7.5190   45.5270 O.co2 147  ASP147     -0.2456
     49  OD2       58.9190   -9.5230   45.1950 O.co2 147  ASP147     -0.2456
     50  N         64.2230   -8.9790   42.7020 N.3   209  GLU209     -0.1231
     51  CA        63.0270   -9.1590   41.8770 C.3   209  GLU209      0.1699
     52  C         62.3450   -7.8340   41.4220 C.2   209  GLU209      0.2592
     53  O         61.7290   -7.7930   40.3430 O.2   209  GLU209     -0.2718
     54  CB        62.0770  -10.1100   42.6170 C.3   209  GLU209      0.0402
     55  CG        61.2420  -11.0420   41.7110 C.3   209  GLU209      0.1161
     56  CD        59.8700  -10.5080   41.5930 C.2   209  GLU209      0.3649
     57  OE1       59.6050   -9.5140   42.2930 O.co2 209  GLU209     -0.2457
     58  OE2       59.0500  -11.0440   40.8330 O.co2 209  GLU209     -0.2457
     59  N         62.4940   -6.7480   42.1990 N.am  210  THR210     -0.1953
     60  CA        61.7250   -5.5310   41.9150 C.3   210  THR210      0.1897
     61  C         62.5250   -4.2100   41.8770 C.2   210  THR210      0.2313
     62  O         63.6690   -4.1290   42.3680 O.2   210  THR210     -0.2863
     63  CB        60.4240   -5.4520   42.8190 C.3   210  THR210      0.1794
     64  OG1       59.4300   -4.6050   42.2140 O.3   210  THR210     -0.2208
     65  CG2       60.7470   -4.9750   44.2150 C.3   210  THR210      0.0378
     66  N         60.1290   -9.5560   32.5440 N.3   239  LYS239     -0.1245
     67  CA        59.7740   -9.2630   33.9110 C.3   239  LYS239      0.1561
     68  C         59.0650   -7.9340   33.9480 C.2   239  LYS239      0.2260
     69  O         57.8350   -7.9150   33.9800 O.2   239  LYS239     -0.2867
     70  CB        60.9780   -9.3250   34.8610 C.3   239  LYS239      0.0271
     71  CG        60.6530   -9.8310   36.2920 C.3   239  LYS239      0.0035
     72  CD        59.6750   -8.8680   37.0000 C.3   239  LYS239      0.0206
     73  CE        60.1170   -8.4170   38.3560 C.3   239  LYS239      0.1093
     74  NZ        59.3100   -7.2960   38.7820 N.3   239  LYS239     -0.1314
     75  N         55.3260   -8.5350   34.0680 N.3   243  ASP243     -0.1225
     76  CA        54.8850   -8.4950   35.4590 C.3   243  ASP243      0.1805
     77  C         54.3880   -7.0900   35.9500 C.2   243  ASP243      0.2597
     78  O         53.2010   -6.9180   36.3630 O.2   243  ASP243     -0.2718
     79  CB        56.0070   -9.0830   36.3400 C.3   243  ASP243      0.1424
     80  CG        55.8030   -8.8700   37.8320 C.2   243  ASP243      0.3668
     81  OD1       55.3940   -7.7860   38.2810 O.co2 243  ASP243     -0.2456
     82  OD2       56.1390   -9.7980   38.5900 O.co2 243  ASP243     -0.2456
     83  N         55.2850   -6.1120   35.9080 N.am  244  ASN244     -0.1974
     84  CA        54.9870   -4.7850   36.3860 C.3   244  ASN244      0.1688
     85  C         53.8360   -4.1690   35.6200 C.2   244  ASN244      0.2292
     86  O         53.0260   -3.4200   36.2030 O.2   244  ASN244     -0.2864
     87  CB        56.2120   -3.8690   36.2980 C.3   244  ASN244      0.1181
     88  CG        57.3680   -4.3510   37.1380 C.2   244  ASN244      0.2629
     89  OD1       57.5200   -5.5410   37.4160 O.2   244  ASN244     -0.2716
     90  ND2       58.2100   -3.4180   37.5390 N.am  244  ASN244     -0.0877
     91  N         52.9590    0.6350   45.0630 N.3   353  GLY353     -0.1210
     92  CA        54.4410    0.5970   44.9950 C.3   353  GLY353      0.1956
     93  C         54.9690   -0.5380   45.8710 C.2   353  GLY353      0.2611
     94  O         54.1820   -1.3880   46.3200 O.2   353  GLY353     -0.2717
     95  N         56.2650   -0.6020   46.1410 N.am  354  HIS354     -0.1975
     96  CA        56.7410   -1.6940   47.0520 C.3   354  HIS354      0.1656
     97  C         56.6670   -1.3640   48.5890 C.2   354  HIS354      0.2291
     98  O         56.3640   -2.2700   49.4150 O.2   354  HIS354     -0.2864
     99  CB        58.1050   -2.2860   46.6310 C.3   354  HIS354      0.0771
    100  CG        58.5690   -3.4190   47.4930 C.ar  354  HIS354      0.0820
    101  ND1       58.2050   -4.7310   47.2660 N.ar  354  HIS354     -0.2267
    102  CD2       59.3820   -3.4450   48.5790 C.ar  354  HIS354      0.1154
    103  CE1       58.7770   -5.5170   48.1670 C.ar  354  HIS354      0.1986
    104  NE2       59.4960   -4.7620   48.9770 N.ar  354  HIS354     -0.2212
    105  N         51.4830   -2.3350   49.7450 N.3   398  LEU398     -0.1245
    106  CA        51.0200   -2.7150   48.4060 C.3   398  LEU398      0.1561
    107  C         49.6760   -3.4510   48.4090 C.2   398  LEU398      0.2260
    108  O         49.5050   -4.4660   49.1080 O.2   398  LEU398     -0.2867
    109  CB        52.1400   -3.3410   47.5580 C.3   398  LEU398      0.0270
    110  CG        52.8120   -4.6900   47.6700 C.3   398  LEU398      0.0019
    111  CD1       54.2100   -4.5930   47.0910 C.3   398  LEU398      0.0001
    112  CD2       52.8660   -5.1950   49.0920 C.3   398  LEU398      0.0001
    113  N         47.5450   -4.8610   46.0480 N.3   400  ASN400     -0.1225
    114  CA        47.2060   -6.0100   45.2520 C.3   400  ASN400      0.1785
    115  C         47.5310   -7.3120   45.9930 C.2   400  ASN400      0.2597
    116  O         46.8170   -8.3050   45.8380 O.2   400  ASN400     -0.2718
    117  CB        47.8940   -5.9490   43.8900 C.3   400  ASN400      0.1169
    118  CG        49.4180   -5.9260   43.9870 C.2   400  ASN400      0.2627
    119  OD1       49.9810   -5.4400   44.9540 O.2   400  ASN400     -0.2716
    120  ND2       50.0820   -6.4190   42.9480 N.am  400  ASN400     -0.0877
    121  N         48.6030   -7.2990   46.7800 N.am  401  LEU401     -0.1980
    122  CA        48.9950   -8.4240   47.6110 C.3   401  LEU401      0.1596
    123  C         48.4270   -8.3480   49.0300 C.2   401  LEU401      0.2287
    124  O         48.2420   -9.3570   49.6690 O.2   401  LEU401     -0.2864
    125  CB        50.5210   -8.5060   47.6720 C.3   401  LEU401      0.0297
    126  CG        51.2010   -9.1460   46.4630 C.3   401  LEU401      0.0022
    127  CD1       52.5900   -8.6040   46.3270 C.3   401  LEU401      0.0001
    128  CD2       51.2010  -10.6930   46.5790 C.3   401  LEU401      0.0001
    129  N         45.4740  -11.0870   46.0500 N.3   405  THR405     -0.1203
    130  CA        46.4600  -12.1420   45.9870 C.3   405  THR405      0.1994
    131  C         47.7770  -11.7730   45.2460 C.2   405  THR405      0.2618
    132  O         48.6900  -12.6050   45.1330 O.2   405  THR405     -0.2717
    133  CB        45.8020  -13.4690   45.4390 C.3   405  THR405      0.1784
    134  OG1       45.1420  -13.2100   44.1880 O.3   405  THR405     -0.2211
    135  CG2       44.7870  -14.0280   46.4490 C.3   405  THR405      0.0376
    136  N         47.8810  -10.5310   44.7640 N.am  406  GLY406     -0.1942
    137  CA        48.9470  -10.1580   43.8380 C.3   406  GLY406      0.2014
    138  C         48.6610  -10.5070   42.3900 C.2   406  GLY406      0.2638
    139  O         47.5000  -10.6570   41.9880 O.2   406  GLY406     -0.2714
    140  N         49.7260  -10.5970   41.5950 N.am  407  HIS407     -0.1973
    141  CA        49.6070  -10.9580   40.1990 C.3   407  HIS407      0.1656
    142  C         49.2700  -12.4200   40.0750 C.2   407  HIS407      0.2291
    143  O         49.7000  -13.2190   40.9190 O.2   407  HIS407     -0.2864
    144  CB        50.9140  -10.7490   39.4590 C.3   407  HIS407      0.0771
    145  CG        51.4040   -9.3520   39.4930 C.ar  407  HIS407      0.0820
    146  ND1       52.7100   -9.0190   39.2040 N.ar  407  HIS407     -0.2267
    147  CD2       50.7760   -8.1970   39.8060 C.ar  407  HIS407      0.1154
    148  CE1       52.8690   -7.7230   39.3510 C.ar  407  HIS407      0.1986
    149  NE2       51.7120   -7.2000   39.7160 N.ar  407  HIS407     -0.2212
    150  N         53.4660  -14.3090   37.0820 N.3   412  MET412     -0.1245
    151  CA        54.5880  -14.7120   37.9220 C.3   412  MET412      0.1570
    152  C         55.4520  -15.8460   37.3040 C.2   412  MET412      0.2261
    153  O         56.6310  -16.0130   37.6080 O.2   412  MET412     -0.2867
    154  CB        54.0680  -15.1460   39.3210 C.3   412  MET412      0.0387
    155  CG        53.3580  -14.0520   40.1110 C.3   412  MET412      0.0595
    156  SD        54.1330  -12.4160   39.8610 S.3   412  MET412     -0.1393
    157  CE        55.7320  -12.8670   40.4860 C.3   412  MET412      0.0692
    158  N         59.2860  -15.3940   37.9520 N.3   416  PHE416     -0.1241
    159  CA        59.8610  -16.5710   38.5930 C.3   416  PHE416      0.1605
    160  C         60.7290  -17.5220   37.7320 C.2   416  PHE416      0.2264
    161  O         61.8070  -17.9640   38.1970 O.2   416  PHE416     -0.2867
    162  CB        58.7860  -17.2870   39.4060 C.3   416  PHE416      0.0534
    163  CG        58.2800  -16.4610   40.5390 C.ar  416  PHE416     -0.0203
    164  CD1       58.9500  -15.2940   40.9150 C.ar  416  PHE416     -0.0042
    165  CD2       57.1870  -16.8390   41.2490 C.ar  416  PHE416     -0.0042
    166  CE1       58.4790  -14.5030   41.9640 C.ar  416  PHE416     -0.0003
    167  CE2       56.7090  -16.0640   42.3160 C.ar  416  PHE416     -0.0003
    168  CZ        57.3520  -14.9040   42.6720 C.ar  416  PHE416     -0.0000
@<TRIPOS>BOND
     1    66    67    1
     2    67    68    1
     3    67    70    1
     4    68    69    2
     5    75    76    1
     6    70    71    1
     7    76    77    1
     8    76    79    1
     9    85    86    2
    10    85    84    1
    11    83    77   am
    12    83    84    1
    13    77    78    2
    14    71    72    1
    15    87    84    1
    16    87    88    1
    17    79    80    1
    18    72    73    1
    19   150   151    1
    20    88    89    2
    21    88    90   am
    22   152   153    2
    23   152   151    1
    24   160   161    2
    25   160   159    1
    26    80    81   ar
    27    80    82   ar
    28   151   154    1
    29   158   159    1
    30    73    74    1
    31   159   162    1
    32   146   148   ar
    33   146   145   ar
    34   154   155    1
    35   148   149   ar
    36   162   163    1
    37   144   145    1
    38   144   141    1
    39   145   147   ar
    40   149   147   ar
    41   156   155    1
    42   156   157    1
    43   142   141    1
    44   142   143    2
    45   141   140    1
    46    53    52    2
    47   163   164   ar
    48   163   165   ar
    49    58    56   ar
    50   164   166   ar
    51   165   167   ar
    52    52    51    1
    53    52    59   am
    54    31    30    1
    55    31    32    1
    56    56    55    1
    57    56    57   ar
    58   140   138   am
    59    55    54    1
    60    51    54    1
    61    51    50    1
    62    61    60    1
    63    61    62    2
    64    60    59    1
    65    60    63    1
    66   166   168   ar
    67   139   138    2
    68    34    32   am
    69    64    63    1
    70    30    27    1
    71   167   168   ar
    72   138   137    1
    73    32    33    2
    74    63    65    1
    75    29    28    2
    76    27    28    1
    77    27    26    1
    78   120   118   am
    79    28    35   am
    80   137   136    1
    81   117   118    1
    82   117   114    1
    83   118   119    2
    84   134   133    1
    85    35    36    1
    86   136   131   am
    87    92    91    1
    88    92    93    1
    89   132   131    2
    90    49    47   ar
    91   131   130    1
    92   114   115    1
    93   114   113    1
    94    36    37    1
    95    36    39    1
    96     7     6    1
    97   133   130    1
    98   133   135    1
    99    38    37    2
   100    48    47   ar
   101     8     6    1
   102    47    46    1
   103    24    23    1
   104   116   115    2
   105    93    95   am
   106    93    94    2
   107   130   129    1
   108   115   121   am
   109     6     5    1
   110    40    39    1
   111    95    96    1
   112   127   126    1
   113   126   128    1
   114   126   125    1
   115    43    46    1
   116    43    42    1
   117    43    44    1
   118    39    41    1
   119    99    96    1
   120    99   100    1
   121    23    25    1
   122    23    20    1
   123   121   122    1
   124    16    18   ar
   125    16    14   ar
   126    96    97    1
   127   111   110    1
   128    18    17   ar
   129    21    22    2
   130    21    20    1
   131   101   100   ar
   132   101   103   ar
   133    44    45    2
   134     5     2    1
   135   100   102   ar
   136   109   110    1
   137   109   106    1
   138   122   125    1
   139   122   123    1
   140   110   112    1
   141    20    19    1
   142    14    13    1
   143    14    15   ar
   144   103   104   ar
   145    13    10    1
   146    12    11    2
   147    17    15   ar
   148   106   107    1
   149   106   105    1
   150   107   108    2
   151   102   104   ar
   152    97    98    2
   153     2     3    1
   154     2     1    1
   155     9     3   am
   156     9    10    1
   157   123   124    2
   158     3     4    2
   159    10    11    1
