@<TRIPOS>MOLECULE
tmp/2zj1C01.pdb
 172 162 0 0 0
SMALL
GASTEIGER

@<TRIPOS>ATOM
      1  N         13.3150  -12.1310   45.6420 N.3    58  LEU58      -0.1231
      2  CA        14.4110  -11.3900   45.0330 C.3    58  LEU58       0.1693
      3  C         15.6760  -11.5760   45.8490 C.2    58  LEU58       0.2592
      4  O         15.6810  -11.2980   47.0500 O.2    58  LEU58      -0.2718
      5  CB        14.0640   -9.8860   44.9550 C.3    58  LEU58       0.0284
      6  CG        14.5870   -8.9760   43.8130 C.3    58  LEU58       0.0019
      7  CD1       13.9440   -7.5840   43.8780 C.3    58  LEU58       0.0001
      8  CD2       16.0930   -8.8220   43.7890 C.3    58  LEU58       0.0001
      9  N         16.7380  -12.0130   45.1870 N.am   59  HIS59      -0.1976
     10  CA        18.0700  -12.1550   45.7640 C.3    59  HIS59       0.1656
     11  C         18.3220  -11.2850   46.9850 C.2    59  HIS59       0.2291
     12  O         18.3970  -10.1130   46.8480 O.2    59  HIS59      -0.2864
     13  CB        19.1690  -11.9040   44.7140 C.3    59  HIS59       0.0771
     14  CG        18.9210  -12.5210   43.3690 C.ar   59  HIS59       0.0820
     15  ND1       19.0830  -13.8570   43.1240 N.ar   59  HIS59      -0.2267
     16  CD2       18.5630  -11.9780   42.1950 C.ar   59  HIS59       0.1154
     17  CE1       18.8340  -14.1110   41.8640 C.ar   59  HIS59       0.1986
     18  NE2       18.4890  -12.9920   41.2830 N.ar   59  HIS59      -0.2212
     19  N         20.3100   -9.4580   48.9660 N.3    61  THR61      -0.1218
     20  CA        21.6340   -8.8810   48.9440 C.3    61  THR61       0.1862
     21  C         21.5750   -7.5730   49.7380 C.2    61  THR61       0.2287
     22  O         20.5000   -7.1680   50.1530 O.2    61  THR61      -0.2866
     23  CB        22.0510   -8.5610   47.5000 C.3    61  THR61       0.1770
     24  OG1       21.1280   -7.6110   46.9560 O.3    61  THR61      -0.2211
     25  CG2       22.0740   -9.8370   46.6190 C.3    61  THR61       0.0375
     26  N         21.9150   -4.6140   48.4620 N.3    63  GLN63      -0.1231
     27  CA        21.0760   -3.7790   47.5750 C.3    63  GLN63       0.1698
     28  C         19.5730   -3.9790   47.7650 C.2    63  GLN63       0.2592
     29  O         18.8230   -3.0260   47.8490 O.2    63  GLN63      -0.2718
     30  CB        21.4040   -4.0570   46.1090 C.3    63  GLN63       0.0381
     31  CG        22.8200   -3.6320   45.7410 C.3    63  GLN63       0.0905
     32  CD        23.8770   -4.5120   46.3760 C.2    63  GLN63       0.2608
     33  OE1       23.7920   -5.7570   46.3330 O.2    63  GLN63      -0.2717
     34  NE2       24.8920   -3.8750   46.9680 N.am   63  GLN63      -0.0878
     35  N         19.1450   -5.2250   47.7850 N.am   64  THR64      -0.1953
     36  CA        17.7400   -5.5690   47.9940 C.3    64  THR64       0.1897
     37  C         17.3160   -5.1410   49.3850 C.2    64  THR64       0.2313
     38  O         16.1970   -4.7120   49.5670 O.2    64  THR64      -0.2863
     39  CB        17.5410   -7.0830   47.8010 C.3    64  THR64       0.1794
     40  OG1       17.6370   -7.3720   46.4050 O.3    64  THR64      -0.2208
     41  CG2       16.1750   -7.5550   48.3190 C.3    64  THR64       0.0378
     42  N         11.1870  -11.6600   40.7140 N.3   146  ASP146     -0.1239
     43  CA        12.4460  -11.6780   39.9420 C.3   146  ASP146      0.1674
     44  C         12.6370  -13.1290   39.4650 C.2   146  ASP146      0.2266
     45  O         12.9850  -14.0000   40.2470 O.2   146  ASP146     -0.2867
     46  CB        13.6010  -11.1620   40.8270 C.3   146  ASP146      0.1410
     47  CG        14.9770  -11.1720   40.1330 C.2   146  ASP146      0.3668
     48  OD1       15.1160  -11.5980   38.9500 O.co2 146  ASP146     -0.2456
     49  OD2       15.9460  -10.7480   40.8100 O.co2 146  ASP146     -0.2456
     50  N         11.0700   -8.1490   37.7660 N.3   208  GLU208     -0.1231
     51  CA        12.3450   -7.4520   37.6620 C.3   208  GLU208      0.1699
     52  C         13.2190   -7.8750   36.4600 C.2   208  GLU208      0.2592
     53  O         14.0910   -7.1190   36.0240 O.2   208  GLU208     -0.2718
     54  CB        13.0780   -7.6080   38.9980 C.3   208  GLU208      0.0402
     55  CG        14.0140   -6.4490   39.3950 C.3   208  GLU208      0.1161
     56  CD        15.4610   -6.8090   39.1820 C.2   208  GLU208      0.3649
     57  OE1       15.7170   -7.9870   38.8440 O.co2 208  GLU208     -0.2457
     58  OE2       16.3270   -5.9260   39.3400 O.co2 208  GLU208     -0.2457
     59  N         12.9740   -9.0500   35.8910 N.am  209  THR209     -0.1953
     60  CA        13.9530   -9.6090   34.9440 C.3   209  THR209      0.1897
     61  C         13.3580  -10.2000   33.6720 C.2   209  THR209      0.2313
     62  O         12.1830  -10.6170   33.6460 O.2   209  THR209     -0.2863
     63  CB        14.9250  -10.6220   35.6510 C.3   209  THR209      0.1794
     64  OG1       16.1690  -10.6720   34.9380 O.3   209  THR209     -0.2208
     65  CG2       14.3220  -12.0270   35.6830 C.3   209  THR209      0.0378
     66  N         16.4490    0.2260   33.4570 N.3   238  LYS238     -0.1245
     67  CA        16.6770   -1.1060   34.0060 C.3   238  LYS238      0.1561
     68  C         17.5220   -1.9110   33.0120 C.2   238  LYS238      0.2260
     69  O         18.7220   -2.0180   33.2200 O.2   238  LYS238     -0.2867
     70  CB        15.3430   -1.7830   34.3650 C.3   238  LYS238      0.0271
     71  CG        15.4560   -2.9220   35.3830 C.3   238  LYS238      0.0035
     72  CD        16.3860   -4.0420   34.8800 C.3   238  LYS238      0.0206
     73  CE        16.5570   -5.2330   35.8950 C.3   238  LYS238      0.1093
     74  NZ        16.9730   -6.5010   35.1780 N.3   238  LYS238     -0.1314
     75  N         21.2060   -2.0870   34.1150 N.3   242  ASP242     -0.1225
     76  CA        21.3890   -3.2390   34.9830 C.3   242  ASP242      0.1805
     77  C         21.9080   -4.4010   34.1360 C.2   242  ASP242      0.2597
     78  O         23.0370   -4.8590   34.3410 O.2   242  ASP242     -0.2718
     79  CB        20.0530   -3.5420   35.6630 C.3   242  ASP242      0.1424
     80  CG        20.0580   -4.8350   36.4840 C.2   242  ASP242      0.3668
     81  OD1       20.5380   -5.8840   36.0230 O.co2 242  ASP242     -0.2456
     82  OD2       19.4740   -4.8040   37.5680 O.co2 242  ASP242     -0.2456
     83  N         21.1310   -4.8210   33.1360 N.am  243  ASN243     -0.1974
     84  CA        21.4820   -6.0430   32.3870 C.3   243  ASN243      0.1688
     85  C         22.8000   -5.8730   31.6850 C.2   243  ASN243      0.2292
     86  O         23.5880   -6.7920   31.6670 O.2   243  ASN243     -0.2864
     87  CB        20.4150   -6.4410   31.3820 C.3   243  ASN243      0.1181
     88  CG        19.0290   -6.5320   31.9960 C.2   243  ASN243      0.2629
     89  OD1       18.6990   -5.8250   32.9460 O.2   243  ASN243     -0.2716
     90  ND2       18.2020   -7.3730   31.4220 N.am  243  ASN243     -0.0877
     91  N         25.3120  -16.9900   33.5470 N.3   351  ILE351     -0.1245
     92  CA        24.8750  -15.7300   34.1540 C.3   351  ILE351      0.1561
     93  C         23.4060  -15.3480   33.8090 C.2   351  ILE351      0.2260
     94  O         22.9220  -14.2760   34.2140 O.2   351  ILE351     -0.2867
     95  CB        25.9180  -14.5820   33.9260 C.3   351  ILE351      0.0252
     96  CG1       25.7080  -13.4150   34.9120 C.3   351  ILE351      0.0019
     97  CG2       25.9660  -14.1730   32.3970 C.3   351  ILE351      0.0019
     98  CD1       26.9610  -12.5580   35.0930 C.3   351  ILE351      0.0001
     99  N         19.1380  -16.1190   34.1470 N.3   353  HIS353     -0.1241
    100  CA        18.4110  -16.3130   35.4220 C.3   353  HIS353      0.1621
    101  C         18.3610  -17.7520   35.9460 C.2   353  HIS353      0.2264
    102  O         18.3930  -17.9650   37.1720 O.2   353  HIS353     -0.2867
    103  CB        16.9860  -15.7160   35.4030 C.3   353  HIS353      0.0745
    104  CG        16.2710  -15.8420   36.7240 C.ar  353  HIS353      0.0817
    105  ND1       16.5190  -14.9990   37.7880 N.ar  353  HIS353     -0.2268
    106  CD2       15.3600  -16.7450   37.1690 C.ar  353  HIS353      0.1154
    107  CE1       15.7730  -15.3590   38.8230 C.ar  353  HIS353      0.1986
    108  NE2       15.0670  -16.4190   38.4770 N.ar  353  HIS353     -0.2212
    109  N         23.2600  -18.5130   38.4160 N.3   397  LEU397     -0.1245
    110  CA        23.8520  -17.2180   38.0510 C.3   397  LEU397      0.1561
    111  C         25.0740  -16.9340   38.9170 C.2   397  LEU397      0.2260
    112  O         24.9680  -16.7800   40.1300 O.2   397  LEU397     -0.2867
    113  CB        22.8430  -16.0480   38.0290 C.3   397  LEU397      0.0270
    114  CG        21.5550  -15.8950   38.8470 C.3   397  LEU397      0.0019
    115  CD1       21.6760  -16.2930   40.3050 C.3   397  LEU397      0.0001
    116  CD2       21.0330  -14.4550   38.7260 C.3   397  LEU397      0.0001
    117  N         27.3740  -14.4840   39.0960 N.3   399  ASN399     -0.1225
    118  CA        27.7040  -13.1790   39.6720 C.3   399  ASN399      0.1785
    119  C         27.2050  -13.0610   41.1230 C.2   399  ASN399      0.2597
    120  O         27.9320  -12.6430   42.0210 O.2   399  ASN399     -0.2718
    121  CB        27.2530  -12.0210   38.7430 C.3   399  ASN399      0.1169
    122  CG        25.7150  -11.9180   38.5860 C.2   399  ASN399      0.2627
    123  OD1       24.9940  -12.9150   38.6740 O.2   399  ASN399     -0.2716
    124  ND2       25.2200  -10.6890   38.3550 N.am  399  ASN399     -0.0877
    125  N         25.9510  -13.4340   41.3530 N.am  400  LEU400     -0.1980
    126  CA        25.4440  -13.5320   42.6970 C.3   400  LEU400      0.1596
    127  C         25.9100  -14.7850   43.4730 C.2   400  LEU400      0.2287
    128  O         25.9970  -14.7500   44.6970 O.2   400  LEU400     -0.2864
    129  CB        23.9090  -13.4950   42.6370 C.3   400  LEU400      0.0297
    130  CG        23.3570  -12.1050   42.2960 C.3   400  LEU400      0.0022
    131  CD1       22.0210  -12.2180   41.5900 C.3   400  LEU400      0.0001
    132  CD2       23.2240  -11.2260   43.5450 C.3   400  LEU400      0.0001
    133  N         28.9360  -10.9260   44.5710 N.3   404  THR404     -0.1203
    134  CA        27.9180  -10.1220   45.2370 C.3   404  THR404      0.1994
    135  C         26.8780   -9.5510   44.2890 C.2   404  THR404      0.2618
    136  O         26.0930   -8.6920   44.6960 O.2   404  THR404     -0.2717
    137  CB        28.5140   -8.9450   46.0990 C.3   404  THR404      0.1784
    138  OG1       29.2010   -7.9990   45.2650 O.3   404  THR404     -0.2211
    139  CG2       29.4450   -9.4430   47.2060 C.3   404  THR404      0.0376
    140  N         26.8700  -10.0220   43.0360 N.am  405  GLY405     -0.1942
    141  CA        25.9500   -9.4990   42.0240 C.3   405  GLY405      0.2014
    142  C         26.3190   -8.0750   41.6610 C.2   405  GLY405      0.2638
    143  O         27.4870   -7.6250   41.8850 O.2   405  GLY405     -0.2714
    144  N         25.3640   -7.3610   41.0810 N.am  406  HIS406     -0.1973
    145  CA        25.6630   -6.0200   40.5580 C.3   406  HIS406      0.1656
    146  C         25.9050   -5.0330   41.7210 C.2   406  HIS406      0.2291
    147  O         25.3560   -5.2110   42.8020 O.2   406  HIS406     -0.2864
    148  CB        24.5330   -5.4710   39.7230 C.3   406  HIS406      0.0771
    149  CG        24.1990   -6.2750   38.5080 C.ar  406  HIS406      0.0820
    150  ND1       23.0120   -6.1170   37.8400 N.ar  406  HIS406     -0.2267
    151  CD2       24.8610   -7.2590   37.8630 C.ar  406  HIS406      0.1154
    152  CE1       22.9680   -6.9460   36.8120 C.ar  406  HIS406      0.1986
    153  NE2       24.0940   -7.6250   36.7860 N.ar  406  HIS406     -0.2212
    154  N         22.0850   -1.1070   40.9080 N.3   411  MET411     -0.1245
    155  CA        20.8290   -1.6210   41.4620 C.3   411  MET411      0.1570
    156  C         19.8830   -0.4740   41.8530 C.2   411  MET411      0.2261
    157  O         18.6530   -0.6180   41.8850 O.2   411  MET411     -0.2867
    158  CB        21.1610   -2.5470   42.6550 C.3   411  MET411      0.0387
    159  CG        21.8000   -3.9000   42.2220 C.3   411  MET411      0.0595
    160  SD        21.1030   -4.5940   40.6760 S.3   411  MET411     -0.1393
    161  CE        19.4740   -5.1020   41.2230 C.3   411  MET411      0.0692
    162  N         16.0030   -0.6930   41.2120 N.3   415  PHE415     -0.1241
    163  CA        15.1530   -0.7220   42.4010 C.3   415  PHE415      0.1605
    164  C         14.3140    0.5600   42.5650 C.2   415  PHE415      0.2264
    165  O         13.1880    0.5030   43.0860 O.2   415  PHE415     -0.2867
    166  CB        15.9500   -1.1330   43.6460 C.3   415  PHE415      0.0534
    167  CG        16.3880   -2.6060   43.6380 C.ar  415  PHE415     -0.0203
    168  CD1       15.7820   -3.5300   42.7950 C.ar  415  PHE415     -0.0042
    169  CD2       17.3830   -3.0560   44.4960 C.ar  415  PHE415     -0.0042
    170  CE1       16.1680   -4.8930   42.7990 C.ar  415  PHE415     -0.0003
    171  CE2       17.7770   -4.4190   44.5240 C.ar  415  PHE415     -0.0003
    172  CZ        17.1690   -5.3350   43.6600 C.ar  415  PHE415     -0.0000
@<TRIPOS>BOND
     1    87    88    1
     2    87    84    1
     3    90    88   am
     4    86    85    2
     5    85    84    1
     6    88    89    2
     7    84    83    1
     8    97    95    1
     9    68    69    2
    10    68    67    1
    11    83    77   am
    12    66    67    1
    13    91    92    1
    14    62    61    2
    15    61    60    1
    16    93    92    1
    17    93    94    2
    18    95    92    1
    19    95    96    1
    20    67    70    1
    21    75    76    1
    22    77    78    2
    23    77    76    1
    24    99   100    1
    25    70    71    1
    26    72    71    1
    27    72    73    1
    28    96    98    1
    29    64    63    1
    30    60    63    1
    31    60    59    1
    32    76    79    1
    33    74    73    1
    34   103   100    1
    35   103   104    1
    36   100   101    1
    37    63    65    1
    38    79    80    1
    39    59    52   am
    40   101   102    2
    41    81    80   ar
    42    53    52    2
    43    52    51    1
    44    80    82   ar
    45   104   106   ar
    46   104   105   ar
    47   153   152   ar
    48   153   151   ar
    49   152   150   ar
    50   106   108   ar
    51    51    50    1
    52    51    54    1
    53   105   107   ar
    54   150   149   ar
    55   151   149   ar
    56   113   110    1
    57   113   114    1
    58   110   109    1
    59   110   111    1
    60   124   122   am
    61   108   107   ar
    62   149   148    1
    63   122   123    2
    64   122   121    1
    65   116   114    1
    66   121   118    1
    67    57    56   ar
    68   114   115    1
    69   111   112    2
    70    48    47   ar
    71    54    55    1
    72   117   118    1
    73    56    58   ar
    74    56    55    1
    75    44    43    1
    76    44    45    2
    77   118   119    1
    78   148   145    1
    79    43    42    1
    80    43    46    1
    81    47    49   ar
    82    47    46    1
    83   145   144    1
    84   145   146    1
    85   160   161    1
    86   160   159    1
    87   154   155    1
    88   144   142   am
    89   119   125   am
    90   119   120    2
    91   162   163    1
    92    18    17   ar
    93    18    16   ar
    94   125   126    1
    95   155   156    1
    96   155   158    1
    97   131   130    1
    98   142   143    2
    99   142   141    1
   100   146   147    2
   101   156   157    2
   102    17    15   ar
   103   141   140    1
   104    16    14   ar
   105   159   158    1
   106   130   129    1
   107   130   132    1
   108   163   164    1
   109   163   166    1
   110   164   165    2
   111   129   126    1
   112   126   127    1
   113   168   170   ar
   114   168   167   ar
   115   170   172   ar
   116   140   135   am
   117    15    14   ar
   118    14    13    1
   119   127   128    2
   120   167   166    1
   121   167   169   ar
   122   172   171   ar
   123     8     6    1
   124     6     7    1
   125     6     5    1
   126   135   136    2
   127   135   134    1
   128   169   171   ar
   129   133   134    1
   130    13    10    1
   131     5     2    1
   132     2     1    1
   133     2     3    1
   134     9    10    1
   135     9     3   am
   136   134   137    1
   137   138   137    1
   138    31    30    1
   139    31    32    1
   140    10    11    1
   141     3     4    2
   142   137   139    1
   143    30    27    1
   144    33    32    2
   145    32    34   am
   146    40    39    1
   147    25    23    1
   148    12    11    2
   149    24    23    1
   150    23    20    1
   151    27    28    1
   152    27    26    1
   153    28    35   am
   154    28    29    2
   155    35    36    1
   156    39    36    1
   157    39    41    1
   158    36    37    1
   159    20    19    1
   160    20    21    1
   161    37    38    2
   162    21    22    2
