@<TRIPOS>MOLECULE
tmp/2zj3A00.pdb
 131 122 0 0 0
SMALL
GASTEIGER

@<TRIPOS>ATOM
      1  N         65.3420   30.6240    2.6890 N.3    58  CYS58      -0.1221
      2  CA        66.1710   29.5340    2.1920 C.3    58  CYS58       0.1808
      3  C         66.6840   28.7050    3.3320 C.2    58  CYS58       0.2602
      4  O         66.7440   29.1620    4.4710 O.2    58  CYS58      -0.2717
      5  CB        67.3510   30.1200    1.4200 C.3    58  CYS58       0.0970
      6  SG        66.8860   31.0650   -0.0170 S.3    58  CYS58      -0.0800
      7  N         67.0640   27.4790    3.0080 N.am   59  GLY59      -0.1942
      8  CA        67.7890   26.6280    3.9370 C.3    59  GLY59       0.2014
      9  C         67.0970   26.4190    5.2730 C.2    59  GLY59       0.2640
     10  O         65.8900   26.1280    5.3390 O.2    59  GLY59      -0.2714
     11  N         67.8640   26.5470    6.3410 N.am   60  THR60      -0.1936
     12  CA        67.3650   26.3150    7.7060 C.3    60  THR60       0.2028
     13  C         66.3220   27.3830    8.0680 C.2    60  THR60       0.2642
     14  O         65.3910   27.1200    8.8510 O.2    60  THR60      -0.2714
     15  CB        68.5530   26.3000    8.7200 C.3    60  THR60       0.1808
     16  OG1       69.3190   25.0830    8.5340 O.3    60  THR60      -0.2208
     17  CG2       68.0760   26.3410   10.1360 C.3    60  THR60       0.0379
     18  N         66.4760   28.5860    7.5290 N.am   61  SER61      -0.1949
     19  CA        65.4790   29.6420    7.8020 C.3    61  SER61       0.1924
     20  C         64.0980   29.2480    7.2830 C.2    61  SER61       0.2314
     21  O         63.0630   29.5230    7.9310 O.2    61  SER61      -0.2863
     22  CB        65.9270   30.9530    7.1850 C.3    61  SER61       0.2116
     23  OG        66.9840   31.5160    7.9690 O.3    61  SER61      -0.2180
     24  N         62.7990   35.4710    6.3620 N.3   104  LEU104     -0.1231
     25  CA        63.5280   34.8430    7.4660 C.3   104  LEU104      0.1693
     26  C         64.9630   34.6400    7.0010 C.2   104  LEU104      0.2593
     27  O         65.1890   33.9850    5.9840 O.2   104  LEU104     -0.2718
     28  CB        62.8500   33.5340    7.8710 C.3   104  LEU104      0.0284
     29  CG        61.3220   33.3940    7.9070 C.3   104  LEU104      0.0019
     30  CD1       60.9480   31.9360    8.3040 C.3   104  LEU104      0.0001
     31  CD2       60.7380   34.4010    8.8610 C.3   104  LEU104      0.0001
     32  N         65.9340   35.2280    7.7040 N.am  105  SER105     -0.1938
     33  CA        67.3280   35.1200    7.2730 C.3   105  SER105      0.2055
     34  C         68.3230   35.3410    8.4130 C.2   105  SER105      0.2643
     35  O         68.3630   36.4280    8.9600 O.2   105  SER105     -0.2714
     36  CB        67.6180   36.1420    6.1650 C.3   105  SER105      0.2130
     37  OG        68.9300   35.9750    5.5860 O.3   105  SER105     -0.2179
     38  N         69.1350   34.3420    8.7490 N.am  106  GLN106     -0.1963
     39  CA        70.1780   34.5210    9.7480 C.3   106  GLN106      0.1733
     40  C         71.0970   35.6700    9.3520 C.2   106  GLN106      0.2617
     41  O         71.3350   36.5790   10.1420 O.2   106  GLN106     -0.2715
     42  CB        71.0010   33.2220    9.9530 C.3   106  GLN106      0.0408
     43  CG        71.8690   33.2690   11.2170 C.3   106  GLN106      0.0908
     44  CD        73.1350   34.0990   11.0790 C.2   106  GLN106      0.2608
     45  OE1       73.5890   34.7170   12.0460 O.2   106  GLN106     -0.2717
     46  NE2       73.7440   34.0770    9.8910 N.am  106  GLN106     -0.0878
     47  N         71.6340   35.6240    8.1350 N.am  107  SER107     -0.1950
     48  CA        72.6220   36.5830    7.6440 C.3   107  SER107      0.1924
     49  C         72.0330   37.9180    7.2160 C.2   107  SER107      0.2314
     50  O         72.7340   38.9240    7.2150 O.2   107  SER107     -0.2863
     51  CB        73.4070   36.0000    6.4620 C.3   107  SER107      0.2116
     52  OG        72.5490   35.7620    5.3380 O.3   107  SER107     -0.2180
     53  N         71.2030   36.8050    2.0480 N.3   110  THR110     -0.1218
     54  CA        71.0230   35.7060    1.0750 C.3   110  THR110      0.1862
     55  C         70.3860   36.2690   -0.1750 C.2   110  THR110      0.2287
     56  O         69.3180   36.8770   -0.0890 O.2   110  THR110     -0.2866
     57  CB        70.1400   34.6010    1.6900 C.3   110  THR110      0.1770
     58  OG1       70.7650   34.1570    2.9080 O.3   110  THR110     -0.2211
     59  CG2       69.9110   33.3760    0.7440 C.3   110  THR110      0.0375
     60  N         66.5760   35.3570   -0.9750 N.3   113  THR113     -0.1218
     61  CA        65.6940   35.9690    0.0020 C.3   113  THR113      0.1862
     62  C         65.6000   37.4800   -0.1950 C.2   113  THR113      0.2287
     63  O         64.4950   38.0500   -0.1370 O.2   113  THR113     -0.2866
     64  CB        66.1270   35.5990    1.4250 C.3   113  THR113      0.1770
     65  OG1       66.2360   34.1760    1.5040 O.3   113  THR113     -0.2211
     66  CG2       65.0860   36.0390    2.4280 C.3   113  THR113      0.0375
     67  N         78.7170   27.0620    9.9720 N.3   156  VAL156     -0.1245
     68  CA        78.0200   27.1600    8.6720 C.3   156  VAL156      0.1561
     69  C         76.6890   26.4560    8.7280 C.2   156  VAL156      0.2260
     70  O         75.7250   26.9200    8.0680 O.2   156  VAL156     -0.2867
     71  CB        78.9140   26.6770    7.5040 C.3   156  VAL156      0.0252
     72  CG1       78.1490   26.5650    6.1920 C.3   156  VAL156      0.0019
     73  CG2       80.0740   27.6330    7.3270 C.3   156  VAL156      0.0019
     74  N         73.5510   26.0450   10.7650 N.3   158  SER158     -0.1217
     75  CA        72.8750   26.9060   11.7450 C.3   158  SER158      0.1889
     76  C         72.1300   26.1270   12.7860 C.2   158  SER158      0.2288
     77  O         71.4370   25.1890   12.4770 O.2   158  SER158     -0.2866
     78  CB        71.9060   27.8180   11.0250 C.3   158  SER158      0.2089
     79  OG        71.4210   28.8210   11.8760 O.3   158  SER158     -0.2183
     80  N         68.7050   17.9890    6.7880 N.3   241  LEU241     -0.1245
     81  CA        69.6240   18.9970    6.2990 C.3   241  LEU241      0.1561
     82  C         70.9000   19.0080    7.1050 C.2   241  LEU241      0.2260
     83  O         72.0110   19.0640    6.5220 O.2   241  LEU241     -0.2867
     84  CB        68.9860   20.3780    6.2850 C.3   241  LEU241      0.0270
     85  CG        69.9060   21.4940    5.8400 C.3   241  LEU241      0.0019
     86  CD1       70.5000   21.1860    4.5270 C.3   241  LEU241      0.0001
     87  CD2       69.1250   22.8120    5.7680 C.3   241  LEU241      0.0001
     88  N         74.5940   18.4820    5.6790 N.3   245  GLU245     -0.1245
     89  CA        75.5180   19.6120    5.6850 C.3   245  GLU245      0.1567
     90  C         76.9510   19.2380    6.1240 C.2   245  GLU245      0.2260
     91  O         77.9150   19.6700    5.5110 O.2   245  GLU245     -0.2867
     92  CB        75.0300   20.7190    6.6250 C.3   245  GLU245      0.0388
     93  CG        73.9500   21.6400    6.0120 C.3   245  GLU245      0.1160
     94  CD        73.3390   22.6080    7.0320 C.2   245  GLU245      0.3649
     95  OE1       73.2370   23.8150    6.7190 O.co2 245  GLU245     -0.2457
     96  OE2       72.9390   22.1190    8.1310 O.co2 245  GLU245     -0.2457
     97  N         79.9760   24.5030    1.0760 N.3   358  LEU358     -0.1231
     98  CA        78.9230   25.3590    1.6540 C.3   358  LEU358      0.1693
     99  C         79.4720   26.6540    2.1970 C.2   358  LEU358      0.2592
    100  O         80.6580   26.7500    2.4970 O.2   358  LEU358     -0.2718
    101  CB        78.2270   24.6060    2.7630 C.3   358  LEU358      0.0284
    102  CG        77.5700   23.2830    2.3880 C.3   358  LEU358      0.0019
    103  CD1       76.9280   22.7430    3.6300 C.3   358  LEU358      0.0001
    104  CD2       76.5060   23.4570    1.2610 C.3   358  LEU358      0.0001
    105  N         78.6060   27.6660    2.3240 N.am  359  ALA359     -0.1966
    106  CA        78.9900   28.9970    2.8210 C.3   359  ALA359      0.1728
    107  C         78.0250   29.4210    3.9240 C.2   359  ALA359      0.2616
    108  O         76.8820   28.9680    3.9650 O.2   359  ALA359     -0.2715
    109  CB        78.9580   30.0160    1.6910 C.3   359  ALA359      0.0334
    110  N         78.4640   30.2610    4.8320 N.am  360  LYS360     -0.1963
    111  CA        77.5420   30.7550    5.8620 C.3   360  LYS360      0.1728
    112  C         76.3950   31.5530    5.2290 C.2   360  LYS360      0.2617
    113  O         75.2510   31.4900    5.6950 O.2   360  LYS360     -0.2715
    114  CB        78.2800   31.6020    6.8860 C.3   360  LYS360      0.0311
    115  CG        77.4400   31.9840    8.1150 C.3   360  LYS360      0.0038
    116  CD        77.0210   30.7800    8.9390 C.3   360  LYS360      0.0206
    117  CE        76.0710   31.2010   10.0270 C.3   360  LYS360      0.1093
    118  NZ        75.3040   30.0720   10.6030 N.3   360  LYS360     -0.1314
    119  N         76.7070   32.3020    4.1670 N.am  361  SER361     -0.1936
    120  CA        75.7140   33.1150    3.4620 C.3   361  SER361      0.2055
    121  C         76.0640   33.1540    1.9820 C.2   361  SER361      0.2642
    122  O         77.2120   33.4030    1.6220 O.2   361  SER361     -0.2714
    123  CB        75.7300   34.5490    3.9920 C.3   361  SER361      0.2130
    124  OG        74.6830   35.3380    3.4290 O.3   361  SER361     -0.2179
    125  N         75.0800   32.9000    1.1390 N.am  362  VAL362     -0.1977
    126  CA        75.2490   32.9000   -0.3110 C.3   362  VAL362      0.1596
    127  C         74.6410   34.1890   -0.8340 C.2   362  VAL362      0.2287
    128  O         73.4030   34.3230   -0.9540 O.2   362  VAL362     -0.2864
    129  CB        74.5680   31.6740   -0.9320 C.3   362  VAL362      0.0276
    130  CG1       74.7460   31.6680   -2.4630 C.3   362  VAL362      0.0022
    131  CG2       75.1090   30.3670   -0.2920 C.3   362  VAL362      0.0022
@<TRIPOS>BOND
     1   130   129    1
     2    60    61    1
     3   128   127    2
     4   129   126    1
     5   129   131    1
     6   127   126    1
     7   126   125    1
     8    62    63    2
     9    62    61    1
    10    55    56    2
    11    55    54    1
    12     6     5    1
    13    61    64    1
    14    59    57    1
    15    54    57    1
    16    54    53    1
    17    97    98    1
    18   125   121   am
    19   104   102    1
    20     5     2    1
    21    64    65    1
    22    64    66    1
    23   122   121    2
    24    98    99    1
    25    98   101    1
    26    57    58    1
    27   109   106    1
    28   121   120    1
    29     2     1    1
    30     2     3    1
    31    99   105   am
    32    99   100    2
    33   105   106    1
    34   102   101    1
    35   102   103    1
    36   106   107    1
    37     7     3   am
    38     7     8    1
    39     3     4    2
    40   124   123    1
    41   120   123    1
    42   120   119    1
    43   107   108    2
    44   107   110   am
    45     8     9    1
    46   119   112   am
    47    86    85    1
    48   110   111    1
    49   112   113    2
    50   112   111    1
    51     9    10    2
    52     9    11   am
    53    52    51    1
    54    91    90    2
    55    37    36    1
    56    88    89    1
    57    89    90    1
    58    89    92    1
    59    87    85    1
    60    85    84    1
    61   111   114    1
    62    27    26    2
    63    93    92    1
    64    93    94    1
    65    36    33    1
    66    72    71    1
    67    84    81    1
    68    81    80    1
    69    81    82    1
    70    11    12    1
    71    24    25    1
    72    51    48    1
    73    83    82    2
    74    95    94   ar
    75   114   115    1
    76    26    25    1
    77    26    32   am
    78    94    96   ar
    79    22    19    1
    80    22    23    1
    81    50    49    2
    82    49    48    1
    83    33    32    1
    84    33    34    1
    85    20    19    1
    86    20    21    2
    87    73    71    1
    88    25    28    1
    89    71    68    1
    90    18    19    1
    91    18    13   am
    92    48    47    1
    93    12    13    1
    94    12    15    1
    95    28    29    1
    96    29    30    1
    97    29    31    1
    98    13    14    2
    99    70    69    2
   100   115   116    1
   101    47    40   am
   102    34    38   am
   103    34    35    2
   104    16    15    1
   105    68    69    1
   106    68    67    1
   107    15    17    1
   108    38    39    1
   109   116   117    1
   110    40    39    1
   111    40    41    2
   112    39    42    1
   113    46    44   am
   114    42    43    1
   115   117   118    1
   116    74    75    1
   117    78    75    1
   118    78    79    1
   119    44    43    1
   120    44    45    2
   121    75    76    1
   122    77    76    2
