@<TRIPOS>MOLECULE
tmp/2zj4A00.pdb
 132 123 0 0 0
SMALL
GASTEIGER

@<TRIPOS>ATOM
      1  N         65.4660   30.6880    2.6410 N.3    58  CYS58      -0.1221
      2  CA        66.2930   29.5770    2.1330 C.3    58  CYS58       0.1808
      3  C         66.7430   28.6280    3.2420 C.2    58  CYS58       0.2602
      4  O         66.8750   29.0100    4.3830 O.2    58  CYS58      -0.2717
      5  CB        67.5220   30.0940    1.3780 C.3    58  CYS58       0.0970
      6  SG        67.1620   31.2090   -0.0240 S.3    58  CYS58      -0.0800
      7  N         66.9610   27.3730    2.8850 N.am   59  GLY59      -0.1942
      8  CA        67.5270   26.3850    3.8090 C.3    59  GLY59       0.2014
      9  C         66.9570   26.3400    5.2170 C.2    59  GLY59       0.2640
     10  O         65.7320   26.1550    5.4150 O.2    59  GLY59      -0.2714
     11  N         67.8350   26.4530    6.2220 N.am   60  THR60      -0.1936
     12  CA        67.3810   26.3550    7.5980 C.3    60  THR60       0.2028
     13  C         66.4060   27.5060    8.0040 C.2    60  THR60       0.2642
     14  O         65.4840   27.3040    8.8260 O.2    60  THR60      -0.2714
     15  CB        68.5890   26.1990    8.6080 C.3    60  THR60       0.1808
     16  OG1       69.1540   24.8760    8.4840 O.3    60  THR60      -0.2208
     17  CG2       68.1510   26.3900   10.0660 C.3    60  THR60       0.0379
     18  N         66.5900   28.6910    7.4620 N.am   61  SER61      -0.1949
     19  CA        65.6510   29.7980    7.7180 C.3    61  SER61       0.1924
     20  C         64.2400   29.4610    7.1920 C.2    61  SER61       0.2314
     21  O         63.2450   29.7070    7.8820 O.2    61  SER61      -0.2863
     22  CB        66.1630   31.0850    7.1060 C.3    61  SER61       0.2116
     23  OG        67.2390   31.5820    7.8850 O.3    61  SER61      -0.2180
     24  N         63.1290   35.6370    6.4190 N.3   104  LEU104     -0.1231
     25  CA        63.8150   35.0070    7.5320 C.3   104  LEU104      0.1693
     26  C         65.2600   34.7600    7.0800 C.2   104  LEU104      0.2593
     27  O         65.4820   34.1310    6.0380 O.2   104  LEU104     -0.2718
     28  CB        63.1090   33.7020    7.8990 C.3   104  LEU104      0.0284
     29  CG        61.5680   33.6000    8.0800 C.3   104  LEU104      0.0019
     30  CD1       61.1810   32.1130    8.3870 C.3   104  LEU104      0.0001
     31  CD2       61.0250   34.5500    9.1870 C.3   104  LEU104      0.0001
     32  N         66.2350   35.2830    7.8190 N.am  105  SER105     -0.1938
     33  CA        67.6580   35.1530    7.3960 C.3   105  SER105      0.2055
     34  C         68.6360   35.3990    8.5460 C.2   105  SER105      0.2643
     35  O         68.6510   36.4960    9.0720 O.2   105  SER105     -0.2714
     36  CB        67.9830   36.1060    6.2550 C.3   105  SER105      0.2130
     37  OG        69.3130   35.9640    5.7280 O.3   105  SER105     -0.2179
     38  N         69.4390   34.3920    8.9220 N.am  106  GLN106     -0.1963
     39  CA        70.5310   34.5940    9.8810 C.3   106  GLN106      0.1733
     40  C         71.4690   35.7220    9.4380 C.2   106  GLN106      0.2617
     41  O         71.7080   36.6530   10.1960 O.2   106  GLN106     -0.2715
     42  CB        71.3410   33.2840   10.0870 C.3   106  GLN106      0.0408
     43  CG        72.2440   33.2510   11.3210 C.3   106  GLN106      0.0908
     44  CD        73.5100   34.0660   11.1960 C.2   106  GLN106      0.2608
     45  OE1       73.9480   34.7120   12.1710 O.2   106  GLN106     -0.2717
     46  NE2       74.1160   34.0470   10.0180 N.am  106  GLN106     -0.0878
     47  N         71.9940   35.6370    8.2170 N.am  107  SER107     -0.1950
     48  CA        72.9980   36.5730    7.7120 C.3   107  SER107      0.1924
     49  C         72.4190   37.9190    7.3410 C.2   107  SER107      0.2314
     50  O         73.1110   38.9180    7.3980 O.2   107  SER107     -0.2863
     51  CB        73.7140   35.9920    6.4840 C.3   107  SER107      0.2116
     52  OG        72.8040   35.7650    5.3890 O.3   107  SER107     -0.2180
     53  N         71.5170   36.8570    2.2050 N.3   110  THR110     -0.1218
     54  CA        71.2050   35.7920    1.2430 C.3   110  THR110      0.1862
     55  C         70.5530   36.3450   -0.0410 C.2   110  THR110      0.2287
     56  O         69.5010   37.0190    0.0410 O.2   110  THR110     -0.2866
     57  CB        70.3260   34.7520    1.9070 C.3   110  THR110      0.1770
     58  OG1       71.0120   34.2600    3.0690 O.3   110  THR110     -0.2211
     59  CG2       69.9790   33.5700    0.9580 C.3   110  THR110      0.0375
     60  N         66.7730   35.5590   -0.9360 N.3   113  THR113     -0.1218
     61  CA        65.8180   36.0710    0.0520 C.3   113  THR113      0.1862
     62  C         65.6840   37.6120   -0.1090 C.2   113  THR113      0.2287
     63  O         64.5770   38.1680    0.0270 O.2   113  THR113     -0.2866
     64  CB        66.2310   35.6710    1.4880 C.3   113  THR113      0.1770
     65  OG1       66.4310   34.2470    1.5690 O.3   113  THR113     -0.2211
     66  CG2       65.1840   36.1020    2.5640 C.3   113  THR113      0.0375
     67  N         78.9300   26.9930   10.0860 N.3   156  VAL156     -0.1245
     68  CA        78.1180   27.0600    8.8720 C.3   156  VAL156      0.1561
     69  C         76.7850   26.3460    9.0630 C.2   156  VAL156      0.2260
     70  O         75.7480   26.8790    8.6280 O.2   156  VAL156     -0.2867
     71  CB        78.9120   26.6280    7.5910 C.3   156  VAL156      0.0252
     72  CG1       78.0070   26.4380    6.4090 C.3   156  VAL156      0.0019
     73  CG2       79.9570   27.7140    7.2690 C.3   156  VAL156      0.0019
     74  N         73.7200   25.8900   10.9650 N.3   158  SER158     -0.1217
     75  CA        73.0150   26.7420   11.9550 C.3   158  SER158      0.1889
     76  C         72.3660   25.9160   13.0360 C.2   158  SER158      0.2288
     77  O         71.8060   24.8580   12.7710 O.2   158  SER158     -0.2866
     78  CB        71.9540   27.6300   11.2970 C.3   158  SER158      0.2089
     79  OG        71.5290   28.6550   12.1890 O.3   158  SER158     -0.2183
     80  N         68.9860   18.1450    6.7880 N.3   241  LEU241     -0.1231
     81  CA        69.9020   19.1260    6.2090 C.3   241  LEU241      0.1693
     82  C         71.2260   19.2320    6.9670 C.2   241  LEU241      0.2591
     83  O         72.3080   19.3590    6.3370 O.2   241  LEU241     -0.2718
     84  CB        69.2510   20.4950    6.1690 C.3   241  LEU241      0.0284
     85  CG        70.1010   21.6460    5.6850 C.3   241  LEU241      0.0019
     86  CD1       70.6810   21.3660    4.2910 C.3   241  LEU241      0.0001
     87  CD2       69.2320   22.9370    5.7050 C.3   241  LEU241      0.0001
     88  N         71.1380   19.2220    8.3010 N.am  242  LYS242     -0.1980
     89  CA        72.3010   19.3830    9.1540 C.3   242  LYS242      0.1596
     90  C         73.2790   18.2190    8.9260 C.2   242  LYS242      0.2287
     91  O         74.4710   18.4450    8.8270 O.2   242  LYS242     -0.2864
     92  CB        71.9200   19.4260   10.6340 C.3   242  LYS242      0.0298
     93  CG        72.6770   20.4610   11.4150 C.3   242  LYS242      0.0038
     94  CD        71.9520   21.8300   11.5340 C.3   242  LYS242      0.0206
     95  CE        71.6430   22.4760   10.1850 C.3   242  LYS242      0.1093
     96  NZ        71.1540   23.8860   10.2920 N.3   242  LYS242     -0.1314
     97  N         74.9030   18.5710    5.4790 N.3   245  GLU245     -0.1245
     98  CA        75.8240   19.7160    5.4570 C.3   245  GLU245      0.1567
     99  C         77.2850   19.4620    5.9350 C.2   245  GLU245      0.2260
    100  O         78.2610   19.9280    5.2960 O.2   245  GLU245     -0.2867
    101  CB        75.1970   20.8190    6.3300 C.3   245  GLU245      0.0388
    102  CG        75.4300   22.1840    5.8230 C.3   245  GLU245      0.1160
    103  CD        74.6430   23.2990    6.4870 C.2   245  GLU245      0.3649
    104  OE1       75.0480   24.4350    6.2350 O.co2 245  GLU245     -0.2457
    105  OE2       73.6760   23.0740    7.2290 O.co2 245  GLU245     -0.2457
    106  N         79.4330   27.9650    2.2410 N.3   359  ALA359     -0.1231
    107  CA        79.7910   29.2430    2.8980 C.3   359  ALA359      0.1694
    108  C         78.6660   29.6010    3.8720 C.2   359  ALA359      0.2592
    109  O         77.5180   29.1820    3.6800 O.2   359  ALA359     -0.2718
    110  CB        79.9250   30.3370    1.8420 C.3   359  ALA359      0.0304
    111  N         78.9570   30.4010    4.8720 N.am  360  LYS360     -0.1966
    112  CA        77.9260   30.8160    5.8500 C.3   360  LYS360      0.1728
    113  C         76.7370   31.5820    5.2060 C.2   360  LYS360      0.2617
    114  O         75.6020   31.3990    5.6060 O.2   360  LYS360     -0.2715
    115  CB        78.5170   31.6640    6.9970 C.3   360  LYS360      0.0311
    116  CG        77.4790   31.9590    8.1460 C.3   360  LYS360      0.0038
    117  CD        77.0920   30.6970    8.8620 C.3   360  LYS360      0.0206
    118  CE        76.0470   30.8580    9.9580 C.3   360  LYS360      0.1093
    119  NZ        75.5190   29.5130   10.4480 N.3   360  LYS360     -0.1314
    120  N         77.0190   32.4030    4.2010 N.am  361  SER361     -0.1936
    121  CA        76.0020   33.1870    3.5450 C.3   361  SER361      0.2055
    122  C         76.2080   33.1060    2.0500 C.2   361  SER361      0.2642
    123  O         77.3150   33.2640    1.5870 O.2   361  SER361     -0.2714
    124  CB        76.1000   34.6480    4.0370 C.3   361  SER361      0.2130
    125  OG        75.0800   35.4570    3.4560 O.3   361  SER361     -0.2179
    126  N         75.1400   32.8710    1.3050 N.am  362  VAL362     -0.1977
    127  CA        75.1850   32.7750   -0.1540 C.3   362  VAL362      0.1596
    128  C         74.6940   34.1250   -0.7110 C.2   362  VAL362      0.2287
    129  O         73.4730   34.3520   -0.8720 O.2   362  VAL362     -0.2864
    130  CB        74.3240   31.5470   -0.6990 C.3   362  VAL362      0.0276
    131  CG1       74.3450   31.4590   -2.2600 C.3   362  VAL362      0.0022
    132  CG2       74.7770   30.2240   -0.0630 C.3   362  VAL362      0.0022
@<TRIPOS>BOND
     1   131   130    1
     2    60    61    1
     3   129   128    2
     4   128   127    1
     5   130   127    1
     6   130   132    1
     7   127   126    1
     8    62    63    2
     9    62    61    1
    10    55    56    2
    11    55    54    1
    12     6     5    1
    13    61    64    1
    14    59    57    1
    15    54    57    1
    16    54    53    1
    17   126   122   am
    18     5     2    1
    19    64    65    1
    20    64    66    1
    21   123   122    2
    22   110   107    1
    23    57    58    1
    24   122   121    1
    25     2     1    1
    26     2     3    1
    27   106   107    1
    28     7     3   am
    29     7     8    1
    30   107   108    1
    31     3     4    2
    32   125   124    1
    33   121   124    1
    34   121   120    1
    35   109   108    2
    36     8     9    1
    37   108   111   am
    38   120   113   am
    39    86    85    1
    40   111   112    1
    41   113   114    2
    42   113   112    1
    43     9    10    2
    44     9    11   am
    45   100    99    2
    46    52    51    1
    47    98    97    1
    48    98    99    1
    49    98   101    1
    50    85    87    1
    51    85    84    1
    52    37    36    1
    53   102   101    1
    54   102   103    1
    55   112   115    1
    56    27    26    2
    57    84    81    1
    58    81    80    1
    59    81    82    1
    60    11    12    1
    61   104   103   ar
    62    36    33    1
    63    83    82    2
    64    72    71    1
    65    24    25    1
    66    51    48    1
    67   103   105   ar
    68    82    88   am
    69   115   116    1
    70    26    25    1
    71    26    32   am
    72    22    19    1
    73    22    23    1
    74    20    19    1
    75    20    21    2
    76    73    71    1
    77    49    50    2
    78    49    48    1
    79    33    32    1
    80    33    34    1
    81    18    19    1
    82    18    13   am
    83    25    28    1
    84    71    68    1
    85    12    13    1
    86    12    15    1
    87    48    47    1
    88    28    29    1
    89    13    14    2
    90    29    30    1
    91    29    31    1
    92   116   117    1
    93    47    40   am
    94    88    89    1
    95    16    15    1
    96    34    38   am
    97    34    35    2
    98    15    17    1
    99    70    69    2
   100    91    90    2
   101   117   118    1
   102    68    69    1
   103    68    67    1
   104    38    39    1
   105    90    89    1
   106    89    92    1
   107    40    39    1
   108    40    41    2
   109    39    42    1
   110   118   119    1
   111    46    44   am
   112    42    43    1
   113    95    96    1
   114    95    94    1
   115    92    93    1
   116    74    75    1
   117    44    43    1
   118    44    45    2
   119    78    75    1
   120    78    79    1
   121    93    94    1
   122    75    76    1
   123    77    76    2
