@<TRIPOS>MOLECULE
tmp/2zj5A00.pdb
 158 151 0 0 0
SMALL
GASTEIGER

@<TRIPOS>ATOM
      1  N          4.4020  -17.0020    8.9520 N.3    20  GLY20      -0.1210
      2  CA         4.3700  -18.3070    9.5830 C.3    20  GLY20       0.1956
      3  C          3.3570  -18.3220   10.6990 C.2    20  GLY20       0.2612
      4  O          2.9570  -19.3710   11.1840 O.2    20  GLY20      -0.2717
      5  N          2.9300  -17.1360   11.0940 N.am   21  ILE21      -0.1965
      6  CA         1.9730  -16.9740   12.1760 C.3    21  ILE21       0.1727
      7  C          0.5770  -17.3980   11.7820 C.2    21  ILE21       0.2616
      8  O          0.0040  -16.8280   10.8690 O.2    21  ILE21      -0.2715
      9  CB         1.9090  -15.5020   12.6210 C.3    21  ILE21       0.0290
     10  CG1        3.3010  -15.0400   13.0530 C.3    21  ILE21       0.0022
     11  CG2        0.8710  -15.3360   13.7300 C.3    21  ILE21       0.0023
     12  CD1        3.3820  -13.5620   13.3870 C.3    21  ILE21       0.0001
     13  N          0.0210  -18.3760   12.4870 N.am   22  GLU22      -0.1963
     14  CA        -1.3310  -18.8490   12.1980 C.3    22  GLU22       0.1733
     15  C         -2.2340  -18.6200   13.3970 C.2    22  GLU22       0.2617
     16  O         -3.4390  -18.4580   13.2480 O.2    22  GLU22      -0.2715
     17  CB        -1.3130  -20.3330   11.8370 C.3    22  GLU22       0.0429
     18  CG        -0.7960  -20.6330   10.4460 C.3    22  GLU22       0.1163
     19  CD        -1.6030  -20.0770    9.3090 C.2    22  GLU22       0.3649
     20  OE1       -2.7580  -19.6360    9.6240 O.co2  22  GLU22      -0.2457
     21  OE2       -1.1530  -20.1030    8.1610 O.co2  22  GLU22      -0.2457
     22  N         -1.6530  -18.5990   14.5910 N.am   23  SER23      -0.1936
     23  CA        -2.4540  -18.3750   15.7920 C.3    23  SER23       0.2055
     24  C         -1.7720  -17.5520   16.8910 C.2    23  SER23       0.2643
     25  O         -0.5670  -17.6680   17.1310 O.2    23  SER23      -0.2714
     26  CB        -2.9360  -19.7140   16.3660 C.3    23  SER23       0.2130
     27  OG        -1.8540  -20.5870   16.5850 O.3    23  SER23      -0.2179
     28  N         -2.5810  -16.7290   17.5510 N.am   24  PHE24      -0.1959
     29  CA        -2.1510  -15.8510   18.6330 C.3    24  PHE24       0.1771
     30  C         -1.9920  -16.5300   19.9960 C.2    24  PHE24       0.2619
     31  O         -2.8110  -17.3650   20.3870 O.2    24  PHE24      -0.2715
     32  CB        -3.1570  -14.7150   18.7880 C.3    24  PHE24       0.0574
     33  CG        -3.1600  -13.7540   17.6480 C.ar   24  PHE24      -0.0200
     34  CD1       -4.3580  -13.2550   17.1510 C.ar   24  PHE24      -0.0042
     35  CD2       -1.9660  -13.3360   17.0690 C.ar   24  PHE24      -0.0042
     36  CE1       -4.3650  -12.3580   16.0960 C.ar   24  PHE24      -0.0003
     37  CE2       -1.9640  -12.4380   16.0140 C.ar   24  PHE24      -0.0003
     38  CZ        -3.1630  -11.9510   15.5290 C.ar   24  PHE24      -0.0000
     39  N         -0.9430  -16.1530   20.7180 N.am   25  TYR25      -0.1974
     40  CA        -0.7090  -16.6800   22.0600 C.3    25  TYR25       0.1639
     41  C         -1.8130  -16.1560   22.9800 C.2    25  TYR25       0.2290
     42  O         -2.3810  -15.0930   22.7390 O.2    25  TYR25      -0.2864
     43  CB         0.6390  -16.1980   22.5900 C.3    25  TYR25       0.0560
     44  CG         1.8340  -16.7170   21.8340 C.ar   25  TYR25      -0.0198
     45  CD1        2.9650  -15.9240   21.6620 C.ar   25  TYR25      -0.0009
     46  CD2        1.8430  -18.0040   21.3010 C.ar   25  TYR25      -0.0009
     47  CE1        4.0750  -16.3960   20.9730 C.ar   25  TYR25       0.0417
     48  CE2        2.9410  -18.4890   20.6170 C.ar   25  TYR25       0.0417
     49  CZ         4.0550  -17.6830   20.4510 C.ar   25  TYR25       0.1957
     50  OH         5.1400  -18.1530   19.7490 O.3    25  TYR25      -0.2866
     51  N         -1.4270  -12.5360   23.8910 N.3    28  GLN28      -0.1245
     52  CA        -1.6640  -11.6980   22.7170 C.3    28  GLN28       0.1566
     53  C         -3.1540  -11.5320   22.4670 C.2    28  GLN28       0.2260
     54  O         -3.6150  -10.4430   22.1300 O.2    28  GLN28      -0.2867
     55  CB        -0.9980  -12.3020   21.4740 C.3    28  GLN28       0.0367
     56  CG         0.5210  -12.3480   21.5320 C.3    28  GLN28       0.0905
     57  CD         1.1410  -13.0950   20.3630 C.2    28  GLN28       0.2608
     58  OE1        0.7200  -14.1900   20.0330 O.2    28  GLN28      -0.2717
     59  NE2        2.1570  -12.5070   19.7500 N.am   28  GLN28      -0.0878
     60  N          8.7750  -11.5530   26.8660 N.3    48  THR48      -0.1203
     61  CA         9.1630  -11.1500   25.5270 C.3    48  THR48       0.1994
     62  C          8.9470  -12.3460   24.5770 C.2    48  THR48       0.2617
     63  O          8.6080  -12.1790   23.4050 O.2    48  THR48      -0.2717
     64  CB        10.6470  -10.7000   25.4770 C.3    48  THR48       0.1784
     65  OG1       11.4840  -11.7900   25.8690 O.3    48  THR48      -0.2211
     66  CG2       10.8950   -9.5280   26.4170 C.3    48  THR48       0.0376
     67  N          9.1330  -13.5530   25.1030 N.am   49  ALA49      -0.1979
     68  CA         8.9500  -14.7710   24.3230 C.3    49  ALA49       0.1597
     69  C          7.5080  -14.8820   23.8390 C.2    49  ALA49       0.2287
     70  O          7.2040  -15.6680   22.9490 O.2    49  ALA49      -0.2864
     71  CB         9.3060  -15.9880   25.1650 C.3    49  ALA49       0.0319
     72  N          5.6120  -12.6090   22.1560 N.3    51  GLY51      -0.1210
     73  CA         5.2640  -11.6340   21.1300 C.3    51  GLY51       0.1956
     74  C          4.6120  -10.2990   21.4770 C.2    51  GLY51       0.2612
     75  O          3.4890  -10.0160   21.0390 O.2    51  GLY51      -0.2717
     76  N          5.3110   -9.4730   22.2490 N.am   52  LYS52      -0.1965
     77  CA         4.8050   -8.1560   22.6180 C.3    52  LYS52       0.1728
     78  C          4.7500   -7.2280   21.3980 C.2    52  LYS52       0.2617
     79  O          3.7470   -6.5600   21.1670 O.2    52  LYS52      -0.2715
     80  CB         5.6870   -7.5260   23.7030 C.3    52  LYS52       0.0311
     81  CG         5.1890   -7.7540   25.1140 C.3    52  LYS52       0.0038
     82  CD         6.1560   -7.2250   26.1550 C.3    52  LYS52       0.0206
     83  CE         7.4440   -8.0440   26.1720 C.3    52  LYS52       0.1093
     84  NZ         8.3570   -7.6560   27.2650 N.3    52  LYS52      -0.1314
     85  N          5.8300   -7.1910   20.6250 N.am   53  THR53      -0.1937
     86  CA         5.8840   -6.3420   19.4430 C.3    53  THR53       0.2028
     87  C          4.7450   -6.6440   18.4700 C.2    53  THR53       0.2642
     88  O          4.0900   -5.7290   17.9730 O.2    53  THR53      -0.2714
     89  CB         7.2320   -6.5020   18.7030 C.3    53  THR53       0.1808
     90  OG1        8.2860   -5.9620   19.5030 O.3    53  THR53      -0.2208
     91  CG2        7.2160   -5.7860   17.3710 C.3    53  THR53       0.0379
     92  N          4.5060   -7.9260   18.2090 N.am   54  LEU54      -0.1977
     93  CA         3.4590   -8.3280   17.2830 C.3    54  LEU54       0.1596
     94  C          2.1520   -7.6320   17.6100 C.2    54  LEU54       0.2287
     95  O          1.4650   -7.1420   16.7150 O.2    54  LEU54      -0.2864
     96  CB         3.2620   -9.8460   17.3140 C.3    54  LEU54       0.0297
     97  CG         2.3170  -10.3850   16.2360 C.3    54  LEU54       0.0022
     98  CD1        2.8410   -9.9730   14.8470 C.3    54  LEU54       0.0001
     99  CD2        2.2110  -11.8960   16.3510 C.3    54  LEU54       0.0001
    100  N          2.4280   -4.0500   16.4940 N.3    57  GLU57      -0.1245
    101  CA         2.4210   -3.9320   15.0440 C.3    57  GLU57       0.1567
    102  C          0.9720   -3.9680   14.5480 C.2    57  GLU57       0.2260
    103  O          0.5460   -3.1250   13.7630 O.2    57  GLU57      -0.2867
    104  CB         3.2090   -5.0850   14.4200 C.3    57  GLU57       0.0388
    105  CG         4.6710   -5.1170   14.7660 C.3    57  GLU57       0.1160
    106  CD         5.4380   -6.1240   13.9280 C.2    57  GLU57       0.3649
    107  OE1        5.5930   -5.8910   12.7070 O.co2  57  GLU57      -0.2457
    108  OE2        5.8860   -7.1510   14.4870 O.co2  57  GLU57      -0.2457
    109  N         14.1440   -3.3360   14.6440 N.3    84  LYS84      -0.1245
    110  CA        12.7320   -3.0670   14.4890 C.3    84  LYS84       0.1561
    111  C         12.4520   -2.5770   13.0770 C.2    84  LYS84       0.2260
    112  O         11.3850   -2.8180   12.5380 O.2    84  LYS84      -0.2867
    113  CB        12.2840   -2.0290   15.5150 C.3    84  LYS84       0.0271
    114  CG        12.1600   -2.5930   16.9120 C.3    84  LYS84       0.0035
    115  CD        10.8930   -3.4160   17.0390 C.3    84  LYS84       0.0206
    116  CE        10.9340   -4.3500   18.2420 C.3    84  LYS84       0.1093
    117  NZ        11.5530   -5.6470   17.8790 N.3    84  LYS84      -0.1314
    118  N         12.3160   -5.8900   10.7610 N.3    87  GLU87      -0.1245
    119  CA        11.1150   -6.6860   10.9640 C.3    87  GLU87       0.1567
    120  C          9.8140   -5.9540   10.6490 C.2    87  GLU87       0.2260
    121  O          8.7420   -6.5510   10.6700 O.2    87  GLU87      -0.2867
    122  CB        11.0810   -7.2550   12.3940 C.3    87  GLU87       0.0388
    123  CG        11.4680   -6.2930   13.5110 C.3    87  GLU87       0.1160
    124  CD        11.1330   -6.8500   14.9020 C.2    87  GLU87       0.3649
    125  OE1        9.9260   -6.9850   15.1970 O.co2  87  GLU87      -0.2457
    126  OE2       12.0570   -7.1600   15.6970 O.co2  87  GLU87      -0.2457
    127  N          8.3990    0.8700   23.5350 N.3   145  ASP145     -0.1239
    128  CA         8.9910   -0.4280   23.8100 C.3   145  ASP145      0.1674
    129  C          9.9570   -0.3360   24.9980 C.2   145  ASP145      0.2266
    130  O         10.7280    0.6080   25.0970 O.2   145  ASP145     -0.2867
    131  CB         9.7130   -0.9620   22.5700 C.3   145  ASP145      0.1410
    132  CG        10.0660   -2.4280   22.7030 C.2   145  ASP145      0.3668
    133  OD1        9.3140   -3.1510   23.3840 O.co2 145  ASP145     -0.2456
    134  OD2       11.0780   -2.8640   22.1280 O.co2 145  ASP145     -0.2456
    135  N          5.1370   -1.3000   26.2300 N.3   175  LEU175     -0.1245
    136  CA         5.5760   -2.6870   26.2810 C.3   175  LEU175      0.1561
    137  C          6.6380   -2.7940   27.3710 C.2   175  LEU175      0.2260
    138  O          7.6860   -2.1480   27.2880 O.2   175  LEU175     -0.2867
    139  CB         6.1640   -3.1260   24.9310 C.3   175  LEU175      0.0270
    140  CG         5.2360   -3.0740   23.7070 C.3   175  LEU175      0.0019
    141  CD1        5.9680   -3.5870   22.4770 C.3   175  LEU175      0.0001
    142  CD2        3.9960   -3.9030   23.9690 C.3   175  LEU175      0.0001
    143  N         11.0760  -21.0790   20.8840 N.3   367  PRO367     -0.2102
    144  CA         9.7200  -21.5400   20.5500 C.3   367  PRO367      0.1504
    145  C          9.5490  -22.7550   19.6250 C.2   367  PRO367      0.2575
    146  O          8.5660  -23.5030   19.7460 O.2   367  PRO367     -0.2718
    147  CB         9.0710  -20.2850   19.9780 C.3   367  PRO367      0.0282
    148  CG         9.6300  -19.2320   20.8620 C.3   367  PRO367      0.0208
    149  CD        11.1090  -19.6050   20.9460 C.3   367  PRO367      0.0893
    150  N         10.4820  -22.9770   18.7130 N.am  368  LYS368     -0.1980
    151  CA        10.3320  -24.1140   17.8160 C.3   368  LYS368      0.1596
    152  C         11.2360  -25.2740   18.1570 C.2   368  LYS368      0.2287
    153  O         10.7900  -26.4190   18.2810 O.2   368  LYS368     -0.2864
    154  CB        10.5940  -23.6800   16.3910 C.3   368  LYS368      0.0298
    155  CG         9.4110  -22.7710   15.9630 C.3   368  LYS368      0.0038
    156  CD         9.5820  -22.5140   14.4680 C.3   368  LYS368      0.0206
    157  CE         9.3690  -21.0140   14.2390 C.3   368  LYS368      0.1093
    158  NZ        10.2700  -20.3120   15.2270 N.3   368  LYS368     -0.1314
@<TRIPOS>BOND
     1    21    19   ar
     2     1     2    1
     3    19    20   ar
     4    19    18    1
     5     2     3    1
     6    18    17    1
     7   120   121    2
     8   120   119    1
     9     3     5   am
    10     3     4    2
    11   118   119    1
    12     8     7    2
    13   119   122    1
    14     5     6    1
    15     7     6    1
    16     7    13   am
    17    17    14    1
    18     6     9    1
    19    14    13    1
    20    14    15    1
    21   122   123    1
    22   112   111    2
    23     9    10    1
    24     9    11    1
    25   107   106   ar
    26    10    12    1
    27   111   110    1
    28    16    15    2
    29    15    22   am
    30   123   124    1
    31   103   102    2
    32   106   108   ar
    33   106   105    1
    34   157   156    1
    35   157   158    1
    36   104   105    1
    37   104   101    1
    38   156   155    1
    39   110   109    1
    40   110   113    1
    41   102   101    1
    42    22    23    1
    43    98    97    1
    44   124   125   ar
    45   124   126   ar
    46   101   100    1
    47   113   114    1
    48    38    37   ar
    49    38    36   ar
    50    23    26    1
    51    23    24    1
    52   155   154    1
    53    37    35   ar
    54    36    34   ar
    55    97    99    1
    56    97    96    1
    57    26    27    1
    58   154   151    1
    59    95    94    2
    60    24    25    2
    61    24    28   am
    62   114   115    1
    63   115   116    1
    64    35    33   ar
    65    34    33   ar
    66    93    96    1
    67    93    94    1
    68    93    92    1
    69    91    89    1
    70    28    29    1
    71    33    32    1
    72   151   152    1
    73   151   150    1
    74   117   116    1
    75    88    87    2
    76   152   153    2
    77    92    87   am
    78    87    86    1
    79    29    32    1
    80    29    30    1
    81    89    86    1
    82    89    90    1
    83   150   145   am
    84    86    85    1
    85   145   146    2
    86   145   144    1
    87    50    49    1
    88    59    57   am
    89   147   144    1
    90   147   148    1
    91    30    31    2
    92    30    39   am
    93    58    57    2
    94    57    56    1
    95    49    48   ar
    96    49    47   ar
    97   144   143    1
    98    48    46   ar
    99    85    78   am
   100    39    40    1
   101   148   149    1
   102   143   149    1
   103    47    45   ar
   104    75    74    2
   105    73    74    1
   106    73    72    1
   107    79    78    2
   108    46    44   ar
   109    78    77    1
   110    55    56    1
   111    55    52    1
   112    74    76   am
   113    45    44   ar
   114    44    43    1
   115    40    43    1
   116    40    41    1
   117   134   132   ar
   118    54    53    2
   119    76    77    1
   120    53    52    1
   121   141   140    1
   122   131   132    1
   123   131   128    1
   124    77    80    1
   125   132   133   ar
   126    52    51    1
   127    42    41    2
   128    70    69    2
   129    63    62    2
   130   127   128    1
   131    80    81    1
   132   140   142    1
   133   140   139    1
   134   128   129    1
   135    69    68    1
   136    68    67    1
   137    68    71    1
   138    62    67   am
   139    62    61    1
   140   139   136    1
   141   129   130    2
   142    81    82    1
   143    64    61    1
   144    64    65    1
   145    64    66    1
   146    61    60    1
   147    82    83    1
   148    83    84    1
   149   135   136    1
   150   136   137    1
   151   138   137    2
