@<TRIPOS>MOLECULE
tmp/2zjaA00.pdb
 153 145 0 0 0
SMALL
GASTEIGER

@<TRIPOS>ATOM
      1  N         13.6570   15.6730   43.4770 N.3    20  GLY20      -0.1210
      2  CA        13.4730   17.0930   43.2800 C.3    20  GLY20       0.1956
      3  C         12.0180   17.4880   43.4120 C.2    20  GLY20       0.2611
      4  O         11.6700   18.6580   43.2290 O.2    20  GLY20      -0.2717
      5  N         11.1680   16.5190   43.7430 N.am   21  ILE21      -0.1979
      6  CA         9.7390   16.7730   43.8720 C.3    21  ILE21       0.1595
      7  C          9.3760   17.1610   45.2930 C.2    21  ILE21       0.2287
      8  O          9.7420   16.4760   46.2480 O.2    21  ILE21      -0.2864
      9  CB         8.8580   15.5350   43.4400 C.3    21  ILE21       0.0276
     10  CG1        9.1440   15.1290   41.9880 C.3    21  ILE21       0.0022
     11  CG2        7.3670   15.8570   43.5700 C.3    21  ILE21       0.0022
     12  CD1       10.2960   14.1570   41.8310 C.3    21  ILE21       0.0001
     13  N          6.0490   19.0200   45.4610 N.3    23  SER23      -0.1202
     14  CA         4.5860   19.0440   45.3100 C.3    23  SER23       0.2020
     15  C          4.1140   18.3440   44.0480 C.2    23  SER23       0.2619
     16  O          4.8350   18.2760   43.0570 O.2    23  SER23      -0.2717
     17  CB         4.0650   20.4770   45.2530 C.3    23  SER23       0.2103
     18  OG         4.2590   20.9900   43.9450 O.3    23  SER23      -0.2182
     19  N          2.8420   17.9640   44.0600 N.am   24  PHE24      -0.1961
     20  CA         2.2060   17.2620   42.9510 C.3    24  PHE24       0.1771
     21  C          1.3570   18.1150   42.0250 C.2    24  PHE24       0.2619
     22  O          0.7120   19.0700   42.4490 O.2    24  PHE24      -0.2715
     23  CB         1.3240   16.1390   43.4860 C.3    24  PHE24       0.0574
     24  CG         2.0840   15.0520   44.1550 C.ar   24  PHE24      -0.0200
     25  CD1        1.8470   14.7430   45.4870 C.ar   24  PHE24      -0.0042
     26  CD2        3.0430   14.3350   43.4570 C.ar   24  PHE24      -0.0042
     27  CE1        2.5490   13.7370   46.1190 C.ar   24  PHE24      -0.0003
     28  CE2        3.7510   13.3320   44.0740 C.ar   24  PHE24      -0.0003
     29  CZ         3.5040   13.0290   45.4140 C.ar   24  PHE24      -0.0000
     30  N          1.3480   17.7270   40.7550 N.am   25  TYR25      -0.1974
     31  CA         0.5460   18.3800   39.7380 C.3    25  TYR25       0.1639
     32  C         -0.8900   17.9930   40.0610 C.2    25  TYR25       0.2290
     33  O         -1.1420   16.8780   40.5120 O.2    25  TYR25      -0.2864
     34  CB         0.9000   17.8160   38.3650 C.3    25  TYR25       0.0560
     35  CG         2.2610   18.2080   37.8710 C.ar   25  TYR25      -0.0198
     36  CD1        3.0410   17.3170   37.1510 C.ar   25  TYR25      -0.0009
     37  CD2        2.7630   19.4900   38.1050 C.ar   25  TYR25      -0.0009
     38  CE1        4.2890   17.6900   36.6770 C.ar   25  TYR25       0.0417
     39  CE2        3.9990   19.8710   37.6280 C.ar   25  TYR25       0.0417
     40  CZ         4.7610   18.9690   36.9170 C.ar   25  TYR25       0.1957
     41  OH         5.9990   19.3500   36.4520 O.3    25  TYR25      -0.2866
     42  N         -1.9450   14.5060   39.2640 N.3    28  GLN28      -0.1245
     43  CA        -1.2690   13.5680   40.1480 C.3    28  GLN28       0.1566
     44  C         -1.9650   13.4800   41.4880 C.2    28  GLN28       0.2260
     45  O         -2.2650   12.3880   41.9660 O.2    28  GLN28      -0.2867
     46  CB         0.1890   13.9820   40.3420 C.3    28  GLN28       0.0367
     47  CG         1.0230   13.8410   39.0940 C.3    28  GLN28       0.0905
     48  CD         2.4430   14.2660   39.2960 C.2    28  GLN28       0.2608
     49  OE1        3.3670   13.5630   38.9230 O.2    28  GLN28      -0.2717
     50  NE2        2.6300   15.4310   39.8830 N.am   28  GLN28      -0.0878
     51  N          1.1200   13.5210   28.8500 N.3    48  THR48      -0.1203
     52  CA         2.3950   12.9790   29.3390 C.3    48  THR48       0.1994
     53  C          3.3040   13.9970   30.0200 C.2    48  THR48       0.2617
     54  O          4.2910   13.6350   30.6570 O.2    48  THR48      -0.2717
     55  CB         3.1950   12.2290   28.2520 C.3    48  THR48       0.1784
     56  OG1        3.5390   13.1350   27.1970 O.3    48  THR48      -0.2211
     57  CG2        2.3850   11.0500   27.7070 C.3    48  THR48       0.0376
     58  N          2.9900   15.2730   29.8910 N.am   49  ALA49      -0.1979
     59  CA         3.8200   16.2650   30.5400 C.3    49  ALA49       0.1597
     60  C          3.4720   16.2710   32.0290 C.2    49  ALA49       0.2287
     61  O          4.3070   16.6400   32.8660 O.2    49  ALA49      -0.2864
     62  CB         3.5670   17.6370   29.9290 C.3    49  ALA49       0.0319
     63  N          3.1950   13.9110   34.3970 N.3    51  GLY51      -0.1210
     64  CA         3.7520   12.9500   35.3330 C.3    51  GLY51       0.1956
     65  C          2.9850   11.6960   35.7010 C.2    51  GLY51       0.2612
     66  O          2.7460   11.4430   36.8850 O.2    51  GLY51      -0.2717
     67  N          2.6460   10.8800   34.7100 N.am   52  LYS52      -0.1965
     68  CA         1.9320    9.6370   34.9730 C.3    52  LYS52       0.1728
     69  C          2.8090    8.6060   35.6910 C.2    52  LYS52       0.2617
     70  O          2.3530    7.9410   36.6190 O.2    52  LYS52      -0.2715
     71  CB         1.3920    9.0500   33.6720 C.3    52  LYS52       0.0311
     72  CG         0.2400    9.8230   33.1000 C.3    52  LYS52       0.0038
     73  CD        -0.4600    9.0700   31.9730 C.3    52  LYS52       0.0206
     74  CE         0.2800    9.1930   30.6490 C.3    52  LYS52       0.1093
     75  NZ         0.4480   10.5960   30.1960 N.3    52  LYS52      -0.1314
     76  N          4.0770    8.5110   35.2890 N.am   53  THR53      -0.1937
     77  CA         5.0050    7.5530   35.8900 C.3    53  THR53       0.2028
     78  C          5.0910    7.6940   37.4090 C.2    53  THR53       0.2642
     79  O          4.8740    6.7270   38.1480 O.2    53  THR53      -0.2714
     80  CB         6.4280    7.6690   35.2990 C.3    53  THR53       0.1808
     81  OG1        6.3650    7.6820   33.8680 O.3    53  THR53      -0.2208
     82  CG2        7.2740    6.4810   35.7310 C.3    53  THR53       0.0379
     83  N          5.4040    8.9040   37.8680 N.am   54  LEU54      -0.1977
     84  CA         5.5160    9.1830   39.2950 C.3    54  LEU54       0.1596
     85  C          4.3330    8.6020   40.0900 C.2    54  LEU54       0.2287
     86  O          4.5300    7.9560   41.1190 O.2    54  LEU54      -0.2864
     87  CB         5.6160   10.6870   39.5210 C.3    54  LEU54       0.0297
     88  CG         6.0250   11.0490   40.9430 C.3    54  LEU54       0.0022
     89  CD1        7.4140   10.4910   41.2130 C.3    54  LEU54       0.0001
     90  CD2        6.0000   12.5480   41.1280 C.3    54  LEU54       0.0001
     91  N          5.8370   -3.5010   36.1510 N.3    73  TYR73      -0.1241
     92  CA         5.6460   -2.3380   35.2940 C.3    73  TYR73       0.1605
     93  C          5.7500   -2.7210   33.8120 C.2    73  TYR73       0.2264
     94  O          6.8020   -3.1520   33.3410 O.2    73  TYR73      -0.2867
     95  CB         6.6620   -1.2550   35.6420 C.3    73  TYR73       0.0534
     96  CG         6.3180    0.1030   35.0790 C.ar   73  TYR73      -0.0201
     97  CD1        5.7840    1.1000   35.8960 C.ar   73  TYR73      -0.0009
     98  CD2        6.5550    0.4080   33.7360 C.ar   73  TYR73      -0.0009
     99  CE1        5.5050    2.3700   35.3970 C.ar   73  TYR73       0.0417
    100  CE2        6.2750    1.6720   33.2260 C.ar   73  TYR73       0.0417
    101  CZ         5.7540    2.6510   34.0640 C.ar   73  TYR73       0.1957
    102  OH         5.5010    3.9130   33.5750 O.3    73  TYR73      -0.2866
    103  N         13.1370    3.2070   31.9560 N.3    84  LYS84      -0.1245
    104  CA        12.3610    2.9920   33.1710 C.3    84  LYS84       0.1561
    105  C         13.2400    2.3350   34.2390 C.2    84  LYS84       0.2260
    106  O         13.1830    2.6980   35.4160 O.2    84  LYS84      -0.2867
    107  CB        11.1180    2.1490   32.8700 C.3    84  LYS84       0.0271
    108  CG        10.0260    2.9240   32.1350 C.3    84  LYS84       0.0035
    109  CD         9.3780    3.9650   33.0340 C.3    84  LYS84       0.0206
    110  CE         8.5940    4.9900   32.2330 C.3    84  LYS84       0.1093
    111  NZ         9.5000    5.9220   31.4870 N.3    84  LYS84      -0.1314
    112  N         15.4700    5.2430   35.6980 N.3    87  GLU87      -0.1245
    113  CA        14.7130    6.1350   36.5620 C.3    87  GLU87       0.1567
    114  C         14.0210    5.4780   37.7680 C.2    87  GLU87       0.2260
    115  O         13.3920    6.1660   38.5750 O.2    87  GLU87      -0.2867
    116  CB        13.7500    7.0160   35.7540 C.3    87  GLU87       0.0388
    117  CG        12.8070    6.2930   34.8170 C.3    87  GLU87       0.1160
    118  CD        11.7840    7.2410   34.1970 C.2    87  GLU87       0.3649
    119  OE1       11.9980    7.6960   33.0480 O.co2  87  GLU87      -0.2457
    120  OE2       10.7680    7.5390   34.8700 O.co2  87  GLU87      -0.2457
    121  N          1.6220    0.7100   31.2530 N.3   145  ASP145     -0.1225
    122  CA         1.9800    2.0230   30.7550 C.3   145  ASP145      0.1805
    123  C          1.5720    2.1130   29.2920 C.2   145  ASP145      0.2597
    124  O          1.6120    1.1140   28.5760 O.2   145  ASP145     -0.2718
    125  CB         3.4750    2.2570   30.9160 C.3   145  ASP145      0.1424
    126  CG         3.8420    3.7090   30.8460 C.2   145  ASP145      0.3668
    127  OD1        2.9350    4.5460   30.7330 O.co2 145  ASP145     -0.2456
    128  OD2        5.0430    4.0200   30.9120 O.co2 145  ASP145     -0.2456
    129  N          1.1560    3.3030   28.8660 N.am  146  GLU146     -0.1979
    130  CA         0.7140    3.5310   27.4930 C.3   146  GLU146      0.1602
    131  C         -0.3700    2.5130   27.1550 C.2   146  GLU146      0.2287
    132  O         -0.3820    1.9180   26.0810 O.2   146  GLU146     -0.2864
    133  CB         1.8970    3.4050   26.5390 C.3   146  GLU146      0.0415
    134  CG         3.0840    4.2630   26.9370 C.3   146  GLU146      0.1163
    135  CD         2.8620    5.7320   26.6750 C.2   146  GLU146      0.3649
    136  OE1        2.0060    6.3590   27.3430 O.co2 146  GLU146     -0.2457
    137  OE2        3.5550    6.2650   25.7860 O.co2 146  GLU146     -0.2457
    138  N         -1.8010    3.8110   32.6910 N.3   175  LEU175     -0.1245
    139  CA        -1.2720    5.1350   32.3790 C.3   175  LEU175      0.1561
    140  C         -1.5100    5.3280   30.8940 C.2   175  LEU175      0.2260
    141  O         -0.9120    4.6200   30.0900 O.2   175  LEU175     -0.2867
    142  CB         0.2240    5.1840   32.6680 C.3   175  LEU175      0.0270
    143  CG         0.6680    4.7520   34.0650 C.3   175  LEU175      0.0019
    144  CD1        2.1850    4.8650   34.1790 C.3   175  LEU175      0.0001
    145  CD2       -0.0410    5.5830   35.1240 C.3   175  LEU175      0.0001
    146  N         12.4270   11.4250   25.0590 N.3   335  ASN335     -0.1240
    147  CA        11.7160   11.8880   26.2560 C.3   335  ASN335      0.1653
    148  C         12.0480   13.3720   26.4070 C.2   335  ASN335      0.2266
    149  O         11.8650   13.9730   27.4750 O.2   335  ASN335     -0.2867
    150  CB        12.1850   11.0970   27.5040 C.3   335  ASN335      0.1155
    151  CG        13.7170   10.9970   27.6100 C.2   335  ASN335      0.2627
    152  OD1       14.3080    9.9840   27.2210 O.2   335  ASN335     -0.2716
    153  ND2       14.3610   12.0470   28.1420 N.am  335  ASN335     -0.0877
@<TRIPOS>BOND
     1   146   147    1
     2   137   135   ar
     3   132   131    2
     4   147   148    1
     5   147   150    1
     6   148   149    2
     7   133   134    1
     8   133   130    1
     9   135   134    1
    10   135   136   ar
    11   131   130    1
    12    56    55    1
    13   152   151    2
    14   130   129    1
    15   150   151    1
    16   151   153   am
    17    57    55    1
    18    55    52    1
    19   124   123    2
    20    51    52    1
    21   129   123   am
    22   123   122    1
    23    52    53    1
    24    58    53   am
    25    58    59    1
    26    62    59    1
    27    53    54    2
    28   141   140    2
    29    75    74    1
    30    59    60    1
    31    74    73    1
    32   127   126   ar
    33   122   125    1
    34   122   121    1
    35   126   128   ar
    36   126   125    1
    37   140   139    1
    38   111   110    1
    39   103   104    1
    40    73    72    1
    41    60    61    2
    42   108   107    1
    43   108   109    1
    44   110   109    1
    45   139   142    1
    46   139   138    1
    47   142   143    1
    48   107   104    1
    49   119   118   ar
    50    72    71    1
    51   104   105    1
    52   100    98   ar
    53   100   101   ar
    54    94    93    2
    55   102   101    1
    56    71    68    1
    57    98    96   ar
    58    93    92    1
    59    81    80    1
    60   101    99   ar
    61   143   144    1
    62   143   145    1
    63   118   117    1
    64   118   120   ar
    65   105   106    2
    66    63    64    1
    67    67    68    1
    68    67    65   am
    69   117   116    1
    70    68    69    1
    71    96    95    1
    72    96    97   ar
    73    76    69   am
    74    76    77    1
    75    92    95    1
    76    92    91    1
    77    80    82    1
    78    80    77    1
    79    64    65    1
    80    99    97   ar
    81    69    70    2
    82   112   113    1
    83    65    66    2
    84   116   113    1
    85    77    78    1
    86    41    40    1
    87   113   114    1
    88    38    40   ar
    89    38    36   ar
    90    40    39   ar
    91    36    35   ar
    92    78    83   am
    93    78    79    2
    94    39    37   ar
    95   114   115    2
    96    83    84    1
    97    35    37   ar
    98    35    34    1
    99    34    31    1
   100    49    48    2
   101    47    48    1
   102    47    46    1
   103    42    43    1
   104    84    87    1
   105    84    85    1
   106    48    50   am
   107    87    88    1
   108    31    32    1
   109    31    30    1
   110    32    33    2
   111    85    86    2
   112    43    46    1
   113    43    44    1
   114    30    21   am
   115    88    90    1
   116    88    89    1
   117    44    45    2
   118    12    10    1
   119    10     9    1
   120    21    22    2
   121    21    20    1
   122    20    23    1
   123    20    19    1
   124    16    15    2
   125     4     3    2
   126     2     3    1
   127     2     1    1
   128     3     5   am
   129     9    11    1
   130     9     6    1
   131    26    28   ar
   132    26    24   ar
   133    23    24    1
   134     5     6    1
   135     6     7    1
   136    18    17    1
   137    15    19   am
   138    15    14    1
   139    28    29   ar
   140    24    25   ar
   141    17    14    1
   142     7     8    2
   143    14    13    1
   144    29    27   ar
   145    25    27   ar
