@<TRIPOS>MOLECULE
tmp/2zjdC00.pdb
 192 183 0 0 0
SMALL
GASTEIGER

@<TRIPOS>ATOM
      1  N         38.9680   32.4290   83.5140 N.3    11  ARG11      -0.1245
      2  CA        38.6500   31.7810   84.7840 C.3    11  ARG11       0.1563
      3  C         38.9060   30.3090   84.8190 C.2    11  ARG11       0.2260
      4  O         38.8060   29.6220   83.8060 O.2    11  ARG11      -0.2867
      5  CB        37.2640   32.1180   85.3090 C.3    11  ARG11       0.0307
      6  CG        36.1080   31.7400   84.4640 C.3    11  ARG11       0.0489
      7  CD        34.8430   32.0260   85.2560 C.3    11  ARG11       0.2205
      8  NE        34.9710   33.2760   86.0050 N.pl3  11  ARG11      -0.0865
      9  CZ        34.5550   33.4690   87.2560 C.cat  11  ARG11       0.5346
     10  NH1       34.7310   34.6530   87.8270 N.pl3  11  ARG11       0.1354
     11  NH2       33.9770   32.4890   87.9440 N.pl3  11  ARG11       0.1354
     12  N         30.3860   27.8050   88.6690 N.3    19  ASP19      -0.1225
     13  CA        29.4650   28.6570   87.9150 C.3    19  ASP19       0.1805
     14  C         28.3110   27.7930   87.3950 C.2    19  ASP19       0.2597
     15  O         27.1520   28.1560   87.5270 O.2    19  ASP19      -0.2718
     16  CB        30.1400   29.2850   86.6830 C.3    19  ASP19       0.1424
     17  CG        31.0040   30.5010   86.9930 C.2    19  ASP19       0.3668
     18  OD1       31.0920   30.9380   88.1620 O.co2  19  ASP19      -0.2456
     19  OD2       31.6100   31.0170   86.0180 O.co2  19  ASP19      -0.2456
     20  N         28.6430   26.6550   86.7870 N.am   20  VAL20      -0.1980
     21  CA        27.6110   25.8140   86.1640 C.3    20  VAL20       0.1595
     22  C         26.7740   25.0890   87.2010 C.2    20  VAL20       0.2287
     23  O         25.5650   25.0150   87.0540 O.2    20  VAL20      -0.2864
     24  CB        28.2440   24.8170   85.1560 C.3    20  VAL20       0.0276
     25  CG1       27.2460   23.7590   84.6930 C.3    20  VAL20       0.0022
     26  CG2       28.7730   25.5910   83.9780 C.3    20  VAL20       0.0022
     27  N         24.2930   27.5820   88.3290 N.3    23  ILE23      -0.1245
     28  CA        23.3420   28.0210   87.3220 C.3    23  ILE23       0.1561
     29  C         22.3650   26.9060   86.8900 C.2    23  ILE23       0.2260
     30  O         21.2440   27.1910   86.4550 O.2    23  ILE23      -0.2867
     31  CB        24.0300   28.6910   86.0980 C.3    23  ILE23       0.0252
     32  CG1       23.1470   29.8070   85.5330 C.3    23  ILE23       0.0019
     33  CG2       24.3230   27.6560   84.9870 C.3    23  ILE23       0.0019
     34  CD1       23.0860   31.0600   86.4280 C.3    23  ILE23       0.0001
     35  N         18.6000   27.9380   87.1520 N.3    27  HIS27      -0.1241
     36  CA        17.9120   27.9890   85.8890 C.3    27  HIS27       0.1621
     37  C         17.9730   26.6330   85.1950 C.2    27  HIS27       0.2264
     38  O         18.5850   26.5070   84.1330 O.2    27  HIS27      -0.2867
     39  CB        18.5110   29.0980   85.0160 C.3    27  HIS27       0.0745
     40  CG        18.3000   30.4600   85.5970 C.ar   27  HIS27       0.0817
     41  ND1       17.0610   31.0520   85.6500 N.ar   27  HIS27      -0.2268
     42  CD2       19.1590   31.3180   86.1990 C.ar   27  HIS27       0.1154
     43  CE1       17.1610   32.2220   86.2590 C.ar   27  HIS27       0.1986
     44  NE2       18.4220   32.4100   86.5970 N.ar   27  HIS27      -0.2212
     45  N         17.3470   26.0600   81.3400 N.3    30  LYS30      -0.1245
     46  CA        18.1580   26.8080   80.3750 C.3    30  LYS30       0.1561
     47  C         19.5490   26.2220   80.2720 C.2    30  LYS30       0.2260
     48  O         20.1300   25.7620   81.2530 O.2    30  LYS30      -0.2867
     49  CB        18.2290   28.2780   80.7760 C.3    30  LYS30       0.0271
     50  CG        16.8310   28.9340   80.8120 C.3    30  LYS30       0.0035
     51  CD        16.9520   30.4310   80.8620 C.3    30  LYS30       0.0206
     52  CE        15.5830   31.0470   81.1520 C.3    30  LYS30       0.1093
     53  NZ        15.5950   32.5160   80.7960 N.3    30  LYS30      -0.1314
     54  N         23.5740   26.7090   79.7810 N.3    32  PRO32      -0.2116
     55  CA        24.6660   27.7110   79.9210 C.3    32  PRO32       0.1372
     56  C         25.6250   27.6380   78.7310 C.2    32  PRO32       0.2244
     57  O         26.2700   26.6040   78.5210 O.2    32  PRO32      -0.2868
     58  CB        25.3310   27.3170   81.2340 C.3    32  PRO32       0.0268
     59  CG        25.1330   25.7800   81.2730 C.3    32  PRO32       0.0207
     60  CD        23.8240   25.4930   80.5890 C.3    32  PRO32       0.0892
     61  N         29.6990   31.9530   74.1600 N.3    35  ILE35      -0.1245
     62  CA        29.7000   32.2240   72.7210 C.3    35  ILE35       0.1561
     63  C         30.7520   33.2880   72.4610 C.2    35  ILE35       0.2260
     64  O         30.6750   34.3770   73.0350 O.2    35  ILE35      -0.2867
     65  CB        28.3300   32.6780   72.1920 C.3    35  ILE35       0.0252
     66  CG1       27.2330   31.6630   72.5880 C.3    35  ILE35       0.0019
     67  CG2       28.4100   32.8960   70.6640 C.3    35  ILE35       0.0019
     68  CD1       25.8050   32.1220   72.2550 C.3    35  ILE35       0.0001
     69  N         28.6200   40.3100   74.9170 N.3    49  LYS49      -0.1245
     70  CA        28.6910   39.5130   76.1260 C.3    49  LYS49       0.1561
     71  C         29.2420   38.1390   75.7400 C.2    49  LYS49       0.2260
     72  O         29.3370   37.8350   74.5450 O.2    49  LYS49      -0.2867
     73  CB        27.3060   39.3790   76.7910 C.3    49  LYS49       0.0271
     74  CG        26.7240   40.7110   77.2810 C.3    49  LYS49       0.0035
     75  CD        27.4230   41.1780   78.5240 C.3    49  LYS49       0.0206
     76  CE        26.7530   42.4420   79.0620 C.3    49  LYS49       0.1093
     77  NZ        27.7610   43.3500   79.6370 N.3    49  LYS49      -0.1314
     78  N         28.7200   35.0780   78.2940 N.3    51  LYS51      -0.1231
     79  CA        27.9910   34.0320   79.0300 C.3    51  LYS51       0.1693
     80  C         26.4900   34.1640   78.8550 C.2    51  LYS51       0.2592
     81  O         25.9080   35.1530   79.2770 O.2    51  LYS51      -0.2718
     82  CB        28.2790   34.1230   80.5290 C.3    51  LYS51       0.0285
     83  CG        29.6750   33.8770   80.9830 C.3    51  LYS51       0.0035
     84  CD        29.6590   33.4200   82.4450 C.3    51  LYS51       0.0206
     85  CE        28.9540   34.3820   83.3870 C.3    51  LYS51       0.1093
     86  NZ        29.2200   33.9650   84.8030 N.3    51  LYS51      -0.1314
     87  N         25.8550   33.1320   78.3070 N.am   52  PHE52      -0.1962
     88  CA        24.4600   33.2200   77.9360 C.3    52  PHE52       0.1771
     89  C         23.6770   32.0630   78.5220 C.2    52  PHE52       0.2619
     90  O         24.2380   31.0030   78.7950 O.2    52  PHE52      -0.2715
     91  CB        24.3260   33.2170   76.4130 C.3    52  PHE52       0.0574
     92  CG        24.9750   34.3970   75.7540 C.ar   52  PHE52      -0.0200
     93  CD1       24.2690   35.5940   75.6080 C.ar   52  PHE52      -0.0042
     94  CD2       26.2910   34.3220   75.3000 C.ar   52  PHE52      -0.0042
     95  CE1       24.8710   36.7020   75.0000 C.ar   52  PHE52      -0.0003
     96  CE2       26.9080   35.4310   74.7100 C.ar   52  PHE52      -0.0003
     97  CZ        26.1890   36.6160   74.5480 C.ar   52  PHE52      -0.0000
     98  N         22.3900   32.3020   78.7520 N.am   53  LEU53      -0.1963
     99  CA        21.4370   31.2240   79.0990 C.3    53  LEU53       0.1728
    100  C         20.3990   31.1190   78.0200 C.2    53  LEU53       0.2616
    101  O         19.7690   32.1300   77.6650 O.2    53  LEU53      -0.2715
    102  CB        20.7830   31.4530   80.4780 C.3    53  LEU53       0.0311
    103  CG        21.7660   31.2090   81.6300 C.3    53  LEU53       0.0022
    104  CD1       21.3860   31.8680   82.9490 C.3    53  LEU53       0.0001
    105  CD2       21.9650   29.7030   81.8240 C.3    53  LEU53       0.0001
    106  N         20.2190   29.9070   77.4770 N.am   54  VAL54      -0.1964
    107  CA        19.3170   29.6800   76.3560 C.3    54  VAL54       0.1712
    108  C         18.2370   28.6780   76.7660 C.2    54  VAL54       0.2458
    109  O         18.5750   27.5720   77.1760 O.2    54  VAL54      -0.2730
    110  CB        20.0750   29.1050   75.1410 C.3    54  VAL54       0.0289
    111  CG1       19.1480   28.8840   73.9690 C.3    54  VAL54       0.0023
    112  CG2       21.2160   30.0560   74.7390 C.3    54  VAL54       0.0023
    113  N         16.9410   29.0480   76.6550 N.am   55  PRO55      -0.2727
    114  CA        15.8860   28.0810   76.9900 C.3    55  PRO55       0.1402
    115  C         16.1500   26.7780   76.2660 C.2    55  PRO55       0.2269
    116  O         16.4360   26.7770   75.0510 O.2    55  PRO55      -0.2865
    117  CB        14.6150   28.7500   76.4570 C.3    55  PRO55       0.0296
    118  CG        14.9230   30.1990   76.6020 C.3    55  PRO55       0.0237
    119  CD        16.3680   30.3300   76.2020 C.3    55  PRO55       0.0939
    120  N         14.9330   25.6670   72.5700 N.3    58  VAL58      -0.1245
    121  CA        15.3130   26.4610   71.3990 C.3    58  VAL58       0.1561
    122  C         16.2150   25.6370   70.4770 C.2    58  VAL58       0.2260
    123  O         17.1350   24.9690   70.9470 O.2    58  VAL58      -0.2867
    124  CB        15.9970   27.7860   71.8590 C.3    58  VAL58       0.0252
    125  CG1       16.6370   28.5490   70.6880 C.3    58  VAL58       0.0019
    126  CG2       14.9830   28.6520   72.5610 C.3    58  VAL58       0.0019
    127  N         17.2600   28.8340   65.6120 N.3    62  GLU62      -0.1231
    128  CA        16.7470   29.9780   66.3550 C.3    62  GLU62       0.1699
    129  C         17.8600   30.6940   67.1110 C.2    62  GLU62       0.2592
    130  O         17.8960   31.9310   67.1380 O.2    62  GLU62      -0.2718
    131  CB        15.6290   29.5700   67.3250 C.3    62  GLU62       0.0402
    132  CG        14.9070   30.7360   67.9690 C.3    62  GLU62       0.1161
    133  CD        14.4000   31.7560   66.9420 C.2    62  GLU62       0.3649
    134  OE1       13.6730   31.3560   65.9990 O.co2  62  GLU62      -0.2457
    135  OE2       14.7410   32.9550   67.0700 O.co2  62  GLU62      -0.2457
    136  N         18.7600   29.9350   67.7350 N.am   63  LEU63      -0.1980
    137  CA        19.9090   30.5460   68.3980 C.3    63  LEU63       0.1596
    138  C         20.7410   31.3470   67.3930 C.2    63  LEU63       0.2287
    139  O         21.1800   32.4650   67.6890 O.2    63  LEU63      -0.2864
    140  CB        20.7790   29.5030   69.1070 C.3    63  LEU63       0.0297
    141  CG        22.0300   30.0300   69.8400 C.3    63  LEU63       0.0022
    142  CD1       21.6910   31.0960   70.8800 C.3    63  LEU63       0.0001
    143  CD2       22.8390   28.8930   70.4670 C.3    63  LEU63       0.0001
    144  N         19.0800   34.6120   66.7760 N.3    66  ILE66      -0.1231
    145  CA        19.2890   35.5020   67.9180 C.3    66  ILE66       0.1692
    146  C         20.6790   36.1460   67.9300 C.2    66  ILE66       0.2591
    147  O         20.8120   37.3640   68.1630 O.2    66  ILE66      -0.2718
    148  CB        19.0710   34.7420   69.2470 C.3    66  ILE66       0.0266
    149  CG1       17.6010   34.3170   69.3240 C.3    66  ILE66       0.0019
    150  CG2       19.4420   35.5970   70.4470 C.3    66  ILE66       0.0020
    151  CD1       17.3730   33.1920   70.3180 C.3    66  ILE66       0.0001
    152  N         21.7180   35.3400   67.6820 N.am   67  ILE67      -0.1980
    153  CA        23.0760   35.8880   67.6950 C.3    67  ILE67       0.1595
    154  C         23.3090   36.8320   66.5100 C.2    67  ILE67       0.2287
    155  O         23.9030   37.9140   66.7000 O.2    67  ILE67      -0.2864
    156  CB        24.1660   34.7780   67.7810 C.3    67  ILE67       0.0276
    157  CG1       23.9520   33.9660   69.0660 C.3    67  ILE67       0.0022
    158  CG2       25.5630   35.3870   67.7850 C.3    67  ILE67       0.0022
    159  CD1       23.9280   34.8080   70.3570 C.3    67  ILE67       0.0001
    160  N         21.1200   38.6290   65.1080 N.3    69  ARG69      -0.1231
    161  CA        20.3940   39.8610   65.4320 C.3    69  ARG69       0.1694
    162  C         21.1750   40.7000   66.4500 C.2    69  ARG69       0.2591
    163  O         21.2430   41.9290   66.3250 O.2    69  ARG69      -0.2718
    164  CB        18.9710   39.5700   65.9370 C.3    69  ARG69       0.0321
    165  CG        18.1650   40.8530   66.2130 C.3    69  ARG69       0.0489
    166  CD        16.7710   40.5910   66.7650 C.3    69  ARG69       0.2205
    167  NE        16.8830   39.8570   68.0190 N.pl3  69  ARG69      -0.0865
    168  CZ        15.8560   39.3940   68.7260 C.cat  69  ARG69       0.5346
    169  NH1       14.6060   39.6100   68.3180 N.pl3  69  ARG69       0.1354
    170  NH2       16.0900   38.7030   69.8360 N.pl3  69  ARG69       0.1354
    171  N         21.7790   40.0500   67.4420 N.am   70  ARG70      -0.1980
    172  CA        22.5200   40.7550   68.4820 C.3    70  ARG70       0.1597
    173  C         23.7810   41.4200   67.9280 C.2    70  ARG70       0.2287
    174  O         24.2200   42.4330   68.4460 O.2    70  ARG70      -0.2864
    175  CB        22.8280   39.8390   69.6720 C.3    70  ARG70       0.0334
    176  CG        23.1260   40.5880   70.9570 C.3    70  ARG70       0.0492
    177  CD        23.3260   39.6450   72.1450 C.3    70  ARG70       0.2205
    178  NE        23.7620   40.4020   73.3130 N.pl3  70  ARG70      -0.0865
    179  CZ        22.9600   40.7810   74.3050 C.cat  70  ARG70       0.5346
    180  NH1       21.6790   40.4150   74.3250 N.pl3  70  ARG70       0.1354
    181  NH2       23.4580   41.4870   75.3100 N.pl3  70  ARG70       0.1354
    182  N         29.8200   23.8290   80.7740 N.3   108  PHE108     -0.1241
    183  CA        29.3980   24.8410   79.7900 C.3   108  PHE108      0.1605
    184  C         29.3120   24.2180   78.4070 C.2   108  PHE108      0.2264
    185  O         30.0260   23.2540   78.0960 O.2   108  PHE108     -0.2867
    186  CB        30.4000   26.0040   79.7120 C.3   108  PHE108      0.0534
    187  CG        30.2260   27.0690   80.7640 C.ar  108  PHE108     -0.0203
    188  CD1       29.2560   28.0670   80.6060 C.ar  108  PHE108     -0.0042
    189  CD2       31.0690   27.1080   81.8750 C.ar  108  PHE108     -0.0042
    190  CE1       29.1060   29.0570   81.5640 C.ar  108  PHE108     -0.0003
    191  CE2       30.9230   28.0940   82.8550 C.ar  108  PHE108     -0.0003
    192  CZ        29.9420   29.0620   82.7040 C.ar  108  PHE108     -0.0000
@<TRIPOS>BOND
     1   160   161    1
     2   161   164    1
     3   161   162    1
     4   127   128    1
     5   164   165    1
     6   134   133   ar
     7   165   166    1
     8   163   162    2
     9   128   129    1
    10   128   131    1
    11   162   171   am
    12   154   155    2
    13   154   153    1
    14   166   167    1
    15   144   145    1
    16   133   135   ar
    17   133   132    1
    18   129   130    2
    19   129   136   am
    20   131   132    1
    21   138   139    2
    22   138   137    1
    23   171   172    1
    24   152   153    1
    25   152   146   am
    26   153   156    1
    27   136   137    1
    28   156   158    1
    29   156   157    1
    30   145   146    1
    31   145   148    1
    32   173   174    2
    33   173   172    1
    34   146   147    2
    35   167   168    2
    36   169   168    1
    37   137   140    1
    38   172   175    1
    39   168   170    1
    40   157   159    1
    41   140   141    1
    42   148   149    1
    43   148   150    1
    44   149   151    1
    45   175   176    1
    46   141   143    1
    47   141   142    1
    48   122   123    2
    49   122   121    1
    50    67    65    1
    51   125   124    1
    52   176   177    1
    53   121   124    1
    54   121   120    1
    55   124   126    1
    56   177   178    1
    57    65    66    1
    58    65    62    1
    59    68    66    1
    60    63    62    1
    61    63    64    2
    62    62    61    1
    63   178   179    2
    64   111   110    1
    65   179   180    1
    66   179   181    1
    67    72    71    2
    68    97    96   ar
    69    97    95   ar
    70    96    94   ar
    71   112   110    1
    72    69    70    1
    73    95    93   ar
    74   116   115    2
    75   110   107    1
    76    94    92   ar
    77    93    92   ar
    78    71    70    1
    79    92    91    1
    80    70    73    1
    81   119   118    1
    82   119   113    1
    83   115   114    1
    84   107   108    1
    85   107   106    1
    86    91    88    1
    87   117   118    1
    88   117   114    1
    89   113   108   am
    90   113   114    1
    91   108   109    2
    92    73    74    1
    93    74    75    1
    94   106   100   am
    95   101   100    2
    96    88    87    1
    97    88    89    1
    98   100    99    1
    99   185   184    2
   100    78    79    1
   101    87    80   am
   102   184   183    1
   103    57    56    2
   104    89    98   am
   105    89    90    2
   106    75    76    1
   107    56    55    1
   108    98    99    1
   109    80    79    1
   110    80    81    2
   111    79    82    1
   112    76    77    1
   113    99   102    1
   114   186   183    1
   115   186   187    1
   116    54    55    1
   117    54    60    1
   118   183   182    1
   119    55    58    1
   120    47    46    1
   121    47    48    2
   122    46    49    1
   123    46    45    1
   124   102   103    1
   125    82    83    1
   126    60    59    1
   127   188   187   ar
   128   188   190   ar
   129   187   189   ar
   130    49    50    1
   131    53    52    1
   132    50    51    1
   133    51    52    1
   134    83    84    1
   135    58    59    1
   136   190   192   ar
   137   103   105    1
   138   103   104    1
   139   189   191   ar
   140    84    85    1
   141   192   191   ar
   142    85    86    1
   143     1     2    1
   144     4     3    2
   145    26    24    1
   146    38    37    2
   147     6     7    1
   148     6     5    1
   149    25    24    1
   150     2     3    1
   151     2     5    1
   152    33    31    1
   153    39    40    1
   154    39    36    1
   155    24    21    1
   156    37    36    1
   157     7     8    1
   158    32    31    1
   159    32    34    1
   160    40    41   ar
   161    40    42   ar
   162    41    43   ar
   163    36    35    1
   164     8     9    2
   165    19    17   ar
   166    31    28    1
   167    21    20    1
   168    21    22    1
   169    42    44   ar
   170    43    44   ar
   171    30    29    2
   172    16    17    1
   173    16    13    1
   174    20    14   am
   175    29    28    1
   176    17    18   ar
   177    23    22    2
   178     9    10    1
   179     9    11    1
   180    28    27    1
   181    14    15    2
   182    14    13    1
   183    13    12    1
