@<TRIPOS>MOLECULE
tmp/2zjdA00.pdb
 214 207 0 0 0
SMALL
GASTEIGER

@<TRIPOS>ATOM
      1  N         39.7780   16.3220   39.4490 N.3     6  PHE6       -0.1241
      2  CA        39.0980   16.4770   38.1750 C.3     6  PHE6        0.1605
      3  C         39.8210   17.5400   37.3190 C.2     6  PHE6        0.2264
      4  O         40.0330   17.3320   36.1190 O.2     6  PHE6       -0.2867
      5  CB        37.6470   16.8890   38.4480 C.3     6  PHE6        0.0534
      6  CG        36.8400   17.1730   37.2110 C.ar    6  PHE6       -0.0203
      7  CD1       36.3650   16.1360   36.4120 C.ar    6  PHE6       -0.0042
      8  CD2       36.5220   18.4840   36.8810 C.ar    6  PHE6       -0.0042
      9  CE1       35.5870   16.4170   35.2780 C.ar    6  PHE6       -0.0003
     10  CE2       35.7460   18.7820   35.7640 C.ar    6  PHE6       -0.0003
     11  CZ        35.2760   17.7510   34.9610 C.ar    6  PHE6       -0.0000
     12  N         42.7200   16.1420   35.6170 N.3     9  ARG9       -0.1231
     13  CA        42.4100   15.1280   34.6090 C.3     9  ARG9        0.1694
     14  C         41.7920   15.7110   33.3450 C.2     9  ARG9        0.2591
     15  O         41.7060   15.0320   32.3190 O.2     9  ARG9       -0.2718
     16  CB        41.4700   14.0550   35.1800 C.3     9  ARG9        0.0321
     17  CG        42.0270   13.2820   36.3700 C.3     9  ARG9        0.0489
     18  CD        41.1790   12.0660   36.7120 C.3     9  ARG9        0.2205
     19  NE        39.7400   12.3640   36.8470 N.pl3   9  ARG9       -0.0865
     20  CZ        39.1480   12.7010   37.9920 C.cat   9  ARG9        0.5346
     21  NH1       39.8530   12.7960   39.1120 N.pl3   9  ARG9        0.1354
     22  NH2       37.8430   12.9340   38.0270 N.pl3   9  ARG9        0.1354
     23  N         41.3450   16.9610   33.4120 N.am   10  ARG10      -0.1980
     24  CA        40.6010   17.5480   32.3150 C.3    10  ARG10       0.1597
     25  C         41.0270   18.9960   32.1560 C.2    10  ARG10       0.2287
     26  O         41.0590   19.7510   33.1270 O.2    10  ARG10      -0.2864
     27  CB        39.1080   17.4550   32.6420 C.3    10  ARG10       0.0334
     28  CG        38.1760   17.3970   31.4720 C.3    10  ARG10       0.0492
     29  CD        36.8870   16.7630   31.9350 C.3    10  ARG10       0.2205
     30  NE        35.8740   16.6810   30.8840 N.pl3  10  ARG10      -0.0865
     31  CZ        35.7090   15.6350   30.0750 C.cat  10  ARG10       0.5346
     32  NH1       36.5050   14.5730   30.1650 N.pl3  10  ARG10       0.1354
     33  NH2       34.7480   15.6570   29.1610 N.pl3  10  ARG10       0.1354
     34  N         32.5080   21.3640   28.3970 N.3    18  ASP18      -0.1225
     35  CA        31.5540   20.4950   29.1090 C.3    18  ASP18       0.1805
     36  C         30.3810   21.3240   29.6340 C.2    18  ASP18       0.2597
     37  O         29.2120   20.9530   29.4820 O.2    18  ASP18      -0.2718
     38  CB        32.2140   19.8600   30.3450 C.3    18  ASP18       0.1424
     39  CG        33.1460   18.7100   30.0270 C.2    18  ASP18       0.3668
     40  OD1       33.1910   18.2350   28.8800 O.co2  18  ASP18      -0.2456
     41  OD2       33.8300   18.2650   30.9860 O.co2  18  ASP18      -0.2456
     42  N         30.7000   22.4290   30.3070 N.am   19  VAL19      -0.1980
     43  CA        29.6700   23.2380   30.9370 C.3    19  VAL19       0.1595
     44  C         28.8400   23.9710   29.8870 C.2    19  VAL19       0.2287
     45  O         27.6130   24.0500   30.0190 O.2    19  VAL19      -0.2864
     46  CB        30.2690   24.2190   31.9680 C.3    19  VAL19       0.0276
     47  CG1       29.2180   25.1950   32.4550 C.3    19  VAL19       0.0022
     48  CG2       30.7940   23.4500   33.1680 C.3    19  VAL19       0.0022
     49  N         26.3670   21.5070   28.6390 N.3    22  ILE22      -0.1245
     50  CA        25.3830   21.0230   29.5940 C.3    22  ILE22       0.1561
     51  C         24.3910   22.1260   30.0350 C.2    22  ILE22       0.2260
     52  O         23.2700   21.8210   30.4530 O.2    22  ILE22      -0.2867
     53  CB        26.0500   20.3310   30.8260 C.3    22  ILE22       0.0252
     54  CG1       25.1500   19.2130   31.3640 C.3    22  ILE22       0.0019
     55  CG2       26.3560   21.3310   31.9650 C.3    22  ILE22       0.0019
     56  CD1       25.0440   17.9610   30.4450 C.3    22  ILE22       0.0001
     57  N         20.6080   21.2030   29.8090 N.3    26  HIS26      -0.1241
     58  CA        19.9230   21.1460   31.0930 C.3    26  HIS26       0.1621
     59  C         20.0200   22.4900   31.8110 C.2    26  HIS26       0.2264
     60  O         20.6800   22.6080   32.8440 O.2    26  HIS26      -0.2867
     61  CB        20.5090   20.0340   31.9640 C.3    26  HIS26       0.0745
     62  CG        20.4210   18.6880   31.3220 C.ar   26  HIS26       0.0817
     63  ND1       19.2180   18.0620   31.0850 N.ar   26  HIS26      -0.2268
     64  CD2       21.3830   17.8730   30.8270 C.ar   26  HIS26       0.1154
     65  CE1       19.4460   16.8980   30.4920 C.ar   26  HIS26       0.1986
     66  NE2       20.7480   16.7690   30.3130 N.ar   26  HIS26      -0.2212
     67  N         19.4910   22.9380   35.6640 N.3    29  LYS29      -0.1245
     68  CA        20.3050   22.1560   36.6060 C.3    29  LYS29       0.1561
     69  C         21.6900   22.7460   36.7590 C.2    29  LYS29       0.2260
     70  O         22.2680   23.2530   35.7950 O.2    29  LYS29      -0.2867
     71  CB        20.3960   20.7040   36.1530 C.3    29  LYS29       0.0271
     72  CG        19.0290   20.0370   36.0820 C.3    29  LYS29       0.0035
     73  CD        19.1160   18.5260   36.0110 C.3    29  LYS29       0.0206
     74  CE        17.7070   17.9630   35.8420 C.3    29  LYS29       0.1093
     75  NZ        17.7110   16.4570   35.9850 N.3    29  LYS29      -0.1314
     76  N         25.7000   22.3690   37.2830 N.3    31  PRO31      -0.2116
     77  CA        26.7950   21.4100   37.1080 C.3    31  PRO31       0.1372
     78  C         27.7340   21.4890   38.2980 C.2    31  PRO31       0.2244
     79  O         28.3010   22.5730   38.5940 O.2    31  PRO31      -0.2868
     80  CB        27.4690   21.8550   35.8080 C.3    31  PRO31       0.0268
     81  CG        27.2390   23.3630   35.7980 C.3    31  PRO31       0.0207
     82  CD        25.9260   23.6030   36.4930 C.3    31  PRO31       0.0892
     83  N         31.8670   16.9850   42.6670 N.3    34  ILE34      -0.1245
     84  CA        31.8880   16.6360   44.0910 C.3    34  ILE34       0.1561
     85  C         33.0410   15.6570   44.3040 C.2    34  ILE34       0.2260
     86  O         33.0880   14.6080   43.6530 O.2    34  ILE34      -0.2867
     87  CB        30.5580   16.0060   44.5460 C.3    34  ILE34       0.0252
     88  CG1       29.3600   16.8980   44.1420 C.3    34  ILE34       0.0019
     89  CG2       30.5910   15.7840   46.0690 C.3    34  ILE34       0.0019
     90  CD1       27.9720   16.2600   44.4340 C.3    34  ILE34       0.0001
     91  N         31.4110    8.6330   41.1810 N.3    48  LYS48      -0.1231
     92  CA        31.3260    9.5680   40.0640 C.3    48  LYS48       0.1693
     93  C         31.8050   10.9420   40.5160 C.2    48  LYS48       0.2593
     94  O         31.9410   11.1550   41.7150 O.2    48  LYS48      -0.2718
     95  CB        29.8750    9.6520   39.5730 C.3    48  LYS48       0.0285
     96  CG        29.3490    8.3630   38.9370 C.3    48  LYS48       0.0035
     97  CD        30.1790    7.9920   37.7230 C.3    48  LYS48       0.0206
     98  CE        29.6560    6.7170   37.0420 C.3    48  LYS48       0.1093
     99  NZ        30.2260    6.5580   35.6690 N.3    48  LYS48      -0.1314
    100  N         32.0020   11.8550   39.5550 N.am   49  THR49      -0.1939
    101  CA        32.6120   13.1650   39.8110 C.3    49  THR49       0.2028
    102  C         31.6880   14.3040   39.4020 C.2    49  THR49       0.2642
    103  O         31.5430   15.2710   40.1610 O.2    49  THR49      -0.2714
    104  CB        33.9650   13.3150   39.0650 C.3    49  THR49       0.1808
    105  OG1       34.8050   12.1910   39.3830 O.3    49  THR49      -0.2208
    106  CG2       34.6550   14.6120   39.4590 C.3    49  THR49       0.0379
    107  N         31.0860   14.1780   38.2170 N.am   50  LYS50      -0.1963
    108  CA        30.2670   15.2100   37.5680 C.3    50  LYS50       0.1728
    109  C         28.8030   14.9620   37.7650 C.2    50  LYS50       0.2616
    110  O         28.2740   13.9350   37.3440 O.2    50  LYS50      -0.2715
    111  CB        30.5050   15.2780   36.0440 C.3    50  LYS50       0.0311
    112  CG        31.8120   15.8950   35.6630 C.3    50  LYS50       0.0038
    113  CD        32.1610   15.8680   34.1690 C.3    50  LYS50       0.0206
    114  CE        31.0570   15.6320   33.1790 C.3    50  LYS50       0.1093
    115  NZ        31.7040   15.4890   31.8220 N.3    50  LYS50      -0.1314
    116  N         28.1280   15.9320   38.3730 N.am   51  PHE51      -0.1960
    117  CA        26.7270   15.7710   38.7190 C.3    51  PHE51       0.1771
    118  C         25.9200   16.9540   38.2440 C.2    51  PHE51       0.2619
    119  O         26.4750   18.0530   38.0250 O.2    51  PHE51      -0.2715
    120  CB        26.5820   15.6390   40.2340 C.3    51  PHE51       0.0574
    121  CG        27.2690   14.4270   40.8040 C.ar   51  PHE51      -0.0200
    122  CD1       26.5990   13.2080   40.9060 C.ar   51  PHE51      -0.0042
    123  CD2       28.5800   14.5160   41.2650 C.ar   51  PHE51      -0.0042
    124  CE1       27.2450   12.0720   41.4510 C.ar   51  PHE51      -0.0003
    125  CE2       29.2370   13.3900   41.7890 C.ar   51  PHE51      -0.0003
    126  CZ        28.5620   12.1870   41.9130 C.ar   51  PHE51      -0.0000
    127  N         24.6160   16.7130   38.1030 N.am   52  LEU52      -0.1963
    128  CA        23.6540   17.7930   37.8010 C.3    52  LEU52       0.1728
    129  C         22.6050   17.8410   38.8840 C.2    52  LEU52       0.2616
    130  O         21.9900   16.8350   39.1860 O.2    52  LEU52      -0.2715
    131  CB        23.0100   17.5650   36.4300 C.3    52  LEU52       0.0311
    132  CG        23.9650   17.8060   35.2790 C.3    52  LEU52       0.0022
    133  CD1       23.4600   17.1380   34.0340 C.3    52  LEU52       0.0001
    134  CD2       24.1480   19.2990   35.0320 C.3    52  LEU52       0.0001
    135  N         22.3960   19.0230   39.4600 N.am   53  VAL53      -0.1964
    136  CA        21.4790   19.2010   40.5870 C.3    53  VAL53       0.1712
    137  C         20.3760   20.1740   40.1980 C.2    53  VAL53       0.2458
    138  O         20.6900   21.2800   39.7500 O.2    53  VAL53      -0.2730
    139  CB        22.2420   19.7940   41.8170 C.3    53  VAL53       0.0289
    140  CG1       21.3440   19.9190   43.0190 C.3    53  VAL53       0.0023
    141  CG2       23.4670   18.9090   42.1630 C.3    53  VAL53       0.0023
    142  N         19.0900   19.8060   40.3770 N.am   54  PRO54      -0.2727
    143  CA        18.0210   20.7860   40.0700 C.3    54  PRO54       0.1402
    144  C         18.2690   22.1050   40.7810 C.2    54  PRO54       0.2269
    145  O         18.6410   22.1170   41.9610 O.2    54  PRO54      -0.2865
    146  CB        16.7530   20.1030   40.5860 C.3    54  PRO54       0.0296
    147  CG        17.0710   18.6460   40.5010 C.3    54  PRO54       0.0237
    148  CD        18.5290   18.5290   40.8610 C.3    54  PRO54       0.0939
    149  N         19.2830   20.0690   51.0350 N.3    61  GLU61      -0.1231
    150  CA        18.8540   18.9380   50.1840 C.3    61  GLU61       0.1699
    151  C         20.0460   18.2650   49.4960 C.2    61  GLU61       0.2592
    152  O         20.1340   17.0310   49.4480 O.2    61  GLU61      -0.2718
    153  CB        17.8330   19.4130   49.1410 C.3    61  GLU61       0.0402
    154  CG        17.2490   18.2970   48.2900 C.3    61  GLU61       0.1161
    155  CD        16.1480   17.5270   49.0080 C.2    61  GLU61       0.3649
    156  OE1       15.7700   17.9000   50.1480 O.co2  61  GLU61      -0.2457
    157  OE2       15.6550   16.5390   48.4270 O.co2  61  GLU61      -0.2457
    158  N         20.9780   19.0560   48.9750 N.am   62  LEU62      -0.1980
    159  CA        22.1540   18.4840   48.3230 C.3    62  LEU62       0.1596
    160  C         23.0090   17.6980   49.3190 C.2    62  LEU62       0.2287
    161  O         23.5050   16.6050   49.0160 O.2    62  LEU62      -0.2864
    162  CB        22.9770   19.5740   47.6170 C.3    62  LEU62       0.0297
    163  CG        24.2350   19.0320   46.9260 C.3    62  LEU62       0.0022
    164  CD1       23.9380   17.8860   45.9270 C.3    62  LEU62       0.0001
    165  CD2       25.0060   20.1820   46.2810 C.3    62  LEU62       0.0001
    166  N         21.4140   14.3980   49.8370 N.3    65  ILE65      -0.1231
    167  CA        21.6840   13.5100   48.7030 C.3    65  ILE65       0.1692
    168  C         23.0950   12.9320   48.7480 C.2    65  ILE65       0.2591
    169  O         23.3060   11.7370   48.4680 O.2    65  ILE65      -0.2718
    170  CB        21.4400   14.2510   47.3590 C.3    65  ILE65       0.0266
    171  CG1       19.9610   14.6160   47.2460 C.3    65  ILE65       0.0019
    172  CG2       21.8940   13.4230   46.1790 C.3    65  ILE65       0.0020
    173  CD1       19.6380   15.7090   46.2030 C.3    65  ILE65       0.0001
    174  N         24.0750   13.7790   49.0780 N.am   66  ILE66      -0.1980
    175  CA        25.4540   13.3140   49.0900 C.3    66  ILE66       0.1595
    176  C         25.6700   12.3170   50.2490 C.2    66  ILE66       0.2287
    177  O         26.2820   11.2730   50.0520 O.2    66  ILE66      -0.2864
    178  CB        26.4460   14.4770   49.1650 C.3    66  ILE66       0.0276
    179  CG1       26.2480   15.3840   47.9580 C.3    66  ILE66       0.0022
    180  CG2       27.8840   13.9360   49.2450 C.3    66  ILE66       0.0022
    181  CD1       27.0450   16.7030   48.1050 C.3    66  ILE66       0.0001
    182  N         23.5490   10.3460   51.5140 N.3    68  ARG68      -0.1231
    183  CA        22.9000    9.1030   51.1230 C.3    68  ARG68       0.1694
    184  C         23.7720    8.3400   50.1260 C.2    68  ARG68       0.2591
    185  O         23.9510    7.1200   50.2360 O.2    68  ARG68      -0.2718
    186  CB        21.5080    9.3820   50.5490 C.3    68  ARG68       0.0321
    187  CG        20.6890    8.1020   50.3290 C.3    68  ARG68       0.0489
    188  CD        19.2920    8.3630   49.8060 C.3    68  ARG68       0.2205
    189  NE        19.3540    9.1310   48.5740 N.pl3  68  ARG68      -0.0865
    190  CZ        18.2980    9.6640   47.9620 C.cat  68  ARG68       0.5346
    191  NH1       17.0720    9.4860   48.4500 N.pl3  68  ARG68       0.1354
    192  NH2       18.4880   10.3790   46.8570 N.pl3  68  ARG68       0.1354
    193  N         24.3210    9.0490   49.1500 N.am   69  ARG69      -0.1980
    194  CA        25.1080    8.3950   48.1070 C.3    69  ARG69       0.1597
    195  C         26.4230    7.8170   48.6320 C.2    69  ARG69       0.2287
    196  O         26.8900    6.7820   48.1480 O.2    69  ARG69      -0.2864
    197  CB        25.3060    9.3330   46.8990 C.3    69  ARG69       0.0334
    198  CG        25.6220    8.5680   45.6250 C.3    69  ARG69       0.0492
    199  CD        25.8160    9.4870   44.4500 C.3    69  ARG69       0.2205
    200  NE        26.1770    8.7270   43.2440 N.pl3  69  ARG69      -0.0865
    201  CZ        25.3130    8.3250   42.3100 C.cat  69  ARG69       0.5346
    202  NH1       24.0300    8.6110   42.4080 N.pl3  69  ARG69       0.1354
    203  NH2       25.7550    7.6520   41.2460 N.pl3  69  ARG69       0.1354
    204  N         31.8310   25.1750   36.3730 N.3   107  PHE107     -0.1241
    205  CA        31.4260   24.1750   37.3720 C.3   107  PHE107      0.1605
    206  C         31.3620   24.7790   38.7800 C.2   107  PHE107      0.2264
    207  O         32.1250   25.7170   39.1040 O.2   107  PHE107     -0.2867
    208  CB        32.4260   23.0330   37.4370 C.3   107  PHE107      0.0534
    209  CG        32.2920   22.0100   36.3330 C.ar  107  PHE107     -0.0203
    210  CD1       31.2870   21.0250   36.3970 C.ar  107  PHE107     -0.0042
    211  CD2       33.2040   21.9960   35.2880 C.ar  107  PHE107     -0.0042
    212  CE1       31.1930   20.0540   35.4010 C.ar  107  PHE107     -0.0003
    213  CE2       33.1020   21.0400   34.2770 C.ar  107  PHE107     -0.0003
    214  CZ        32.0890   20.0780   34.3520 C.ar  107  PHE107     -0.0000
@<TRIPOS>BOND
     1    34    35    1
     2    49    50    1
     3    40    39   ar
     4    35    36    1
     5    35    38    1
     6    33    31    1
     7    37    36    2
     8    50    51    1
     9    50    53    1
    10    36    42   am
    11    57    58    1
    12    44    45    2
    13    44    43    1
    14    39    38    1
    15    39    41   ar
    16    51    52    2
    17    31    32    1
    18    31    30    2
    19    42    43    1
    20    66    65   ar
    21    66    64   ar
    22    56    54    1
    23    65    63   ar
    24    53    54    1
    25    53    55    1
    26    64    62   ar
    27    30    29    1
    28    43    46    1
    29    63    62   ar
    30    58    59    1
    31    58    61    1
    32    62    61    1
    33    28    29    1
    34    28    27    1
    35    59    60    2
    36   115   114    1
    37    46    47    1
    38    46    48    1
    39    25    24    1
    40    25    26    2
    41    24    27    1
    42    24    23    1
    43    15    14    2
    44   114   113    1
    45    14    23   am
    46    14    13    1
    47   133   132    1
    48   113   112    1
    49   213   214   ar
    50   213   211   ar
    51   214   212   ar
    52    13    16    1
    53    13    12    1
    54    11     9   ar
    55    11    10   ar
    56   134   132    1
    57    16    17    1
    58     9     7   ar
    59   132   131    1
    60   211   209   ar
    61   212   210   ar
    62   112   111    1
    63    67    68    1
    64    99    98    1
    65    10     8   ar
    66    70    69    2
    67    81    80    1
    68    81    82    1
    69    80    77    1
    70    74    75    1
    71    74    73    1
    72    73    72    1
    73   111   108    1
    74    72    71    1
    75     4     3    2
    76    71    68    1
    77   209   210   ar
    78   209   208    1
    79    17    18    1
    80   204   205    1
    81     7     6   ar
    82   131   128    1
    83    82    76    1
    84    68    69    1
    85    18    19    1
    86    19    20    2
    87     8     6   ar
    88    98    97    1
    89    77    76    1
    90    77    78    1
    91     6     5    1
    92     3     2    1
    93   110   109    2
    94   205   208    1
    95   205   206    1
    96   108   109    1
    97   108   107    1
    98    97    96    1
    99   109   116   am
   100   128   127    1
   101   128   129    1
   102    20    22    1
   103    20    21    1
   104   119   118    2
   105   127   118   am
   106     2     5    1
   107     2     1    1
   108   107   102   am
   109   118   117    1
   110    78    79    2
   111   116   117    1
   112   117   120    1
   113   206   207    2
   114   129   130    2
   115   129   135   am
   116    96    95    1
   117   104   105    1
   118   104   106    1
   119   104   101    1
   120   102   101    1
   121   102   103    2
   122   135   136    1
   123   100   101    1
   124   100    93   am
   125    95    92    1
   126   138   137    2
   127    92    93    1
   128    92    91    1
   129   143   142    1
   130   143   146    1
   131   143   144    1
   132   137   142   am
   133   137   136    1
   134   120   121    1
   135   142   148    1
   136   147   146    1
   137   147   148    1
   138    93    94    2
   139   136   139    1
   140   144   145    2
   141   121   122   ar
   142   121   123   ar
   143   122   124   ar
   144   203   201    1
   145   123   125   ar
   146   124   126   ar
   147   125   126   ar
   148   139   141    1
   149   139   140    1
   150   201   202    1
   151   201   200    2
   152    83    84    1
   153   200   199    1
   154    86    85    2
   155    84    85    1
   156    84    87    1
   157    88    90    1
   158    88    87    1
   159   199   198    1
   160    87    89    1
   161   198   197    1
   162   164   163    1
   163   172   170    1
   164   173   171    1
   165   165   163    1
   166   192   190    1
   167   197   194    1
   168   163   162    1
   169   171   170    1
   170   170   167    1
   171   162   159    1
   172   179   181    1
   173   179   178    1
   174   190   191    1
   175   190   189    2
   176   194   195    1
   177   194   193    1
   178   196   195    2
   179   154   155    1
   180   154   153    1
   181   159   158    1
   182   159   160    1
   183   157   155   ar
   184   169   168    2
   185   189   188    1
   186   167   168    1
   187   167   166    1
   188   168   174   am
   189   158   151   am
   190   155   156   ar
   191   161   160    2
   192   174   175    1
   193   175   178    1
   194   175   176    1
   195   153   150    1
   196   193   184   am
   197   178   180    1
   198   152   151    2
   199   151   150    1
   200   188   187    1
   201   177   176    2
   202   184   185    2
   203   184   183    1
   204   150   149    1
   205   187   186    1
   206   186   183    1
   207   183   182    1
