@<TRIPOS>MOLECULE
tmp/2zjfA00.pdb
 182 179 0 0 0
SMALL
GASTEIGER

@<TRIPOS>ATOM
      1  N          0.7570   -0.3270   23.4320 N.3    33  PHE33      -0.1241
      2  CA        -0.2210   -0.9050   24.3570 C.3    33  PHE33       0.1605
      3  C         -0.7400   -2.2790   23.9290 C.2    33  PHE33       0.2264
      4  O         -1.1350   -2.4660   22.7840 O.2    33  PHE33      -0.2867
      5  CB        -1.4180    0.0440   24.5150 C.3    33  PHE33       0.0534
      6  CG        -2.5680   -0.5500   25.2960 C.ar   33  PHE33      -0.0203
      7  CD1       -3.4230   -1.4830   24.7080 C.ar   33  PHE33      -0.0042
      8  CD2       -2.7570   -0.2240   26.6370 C.ar   33  PHE33      -0.0042
      9  CE1       -4.4410   -2.0880   25.4510 C.ar   33  PHE33      -0.0003
     10  CE2       -3.7700   -0.8230   27.3780 C.ar   33  PHE33      -0.0003
     11  CZ        -4.6130   -1.7600   26.7820 C.ar   33  PHE33      -0.0000
     12  N          3.0180    1.3720   17.8460 N.3   101  ASP101     -0.1225
     13  CA         1.7120    1.5800   18.4630 C.3   101  ASP101      0.1805
     14  C          1.7050    2.9040   19.2320 C.2   101  ASP101      0.2597
     15  O          2.0340    3.9430   18.6680 O.2   101  ASP101     -0.2718
     16  CB         1.3920    0.4090   19.3960 C.3   101  ASP101      0.1424
     17  CG        -0.0420    0.4100   19.8420 C.2   101  ASP101      0.3668
     18  OD1       -0.9340    0.3340   18.9650 O.co2 101  ASP101     -0.2456
     19  OD2       -0.2760    0.4910   21.0690 O.co2 101  ASP101     -0.2456
     20  N          1.3400    2.8810   20.5100 N.am  102  TRP102     -0.1976
     21  CA         1.3350    4.1170   21.2870 C.3   102  TRP102      0.1640
     22  C          2.7200    4.7550   21.3280 C.2   102  TRP102      0.2290
     23  O          2.8510    5.9680   21.4710 O.2   102  TRP102     -0.2864
     24  CB         0.8290    3.8750   22.7070 C.3   102  TRP102      0.0576
     25  CG        -0.5300    4.4520   22.9330 C.ar  102  TRP102      0.0006
     26  CD1       -1.7100    3.7700   23.0460 C.ar  102  TRP102      0.0946
     27  CD2       -0.8580    5.8410   23.0290 C.ar  102  TRP102      0.0152
     28  NE1       -2.7540    4.6520   23.2020 N.ar  102  TRP102     -0.2442
     29  CE2       -2.2580    5.9300   23.1980 C.ar  102  TRP102      0.0810
     30  CE3       -0.1040    7.0230   22.9870 C.ar  102  TRP102      0.0012
     31  CZ2       -2.9200    7.1550   23.3270 C.ar  102  TRP102      0.0191
     32  CZ3       -0.7660    8.2450   23.1160 C.ar  102  TRP102      0.0001
     33  CH2       -2.1600    8.2980   23.2840 C.ar  102  TRP102      0.0015
     34  N          3.1100    7.7110   18.2410 N.3   105  PRO105     -0.2116
     35  CA         2.7950    9.1370   18.3700 C.3   105  PRO105      0.1372
     36  C          3.8410    9.8440   19.2200 C.2   105  PRO105      0.2244
     37  O          4.1680   11.0070   18.9830 O.2   105  PRO105     -0.2868
     38  CB         1.4260    9.1310   19.0410 C.3   105  PRO105      0.0268
     39  CG         0.8030    7.8690   18.5040 C.3   105  PRO105      0.0207
     40  CD         1.9420    6.8750   18.5750 C.3   105  PRO105      0.0892
     41  N          1.3140    2.6560   13.6890 N.3   126  VAL126     -0.1245
     42  CA         0.5890    3.9280   13.7080 C.3   126  VAL126      0.1561
     43  C          1.3790    5.0160   12.9890 C.2   126  VAL126      0.2260
     44  O          2.4030    5.4740   13.4810 O.2   126  VAL126     -0.2867
     45  CB         0.3160    4.3890   15.1630 C.3   126  VAL126      0.0252
     46  CG1       -0.4860    5.6790   15.1660 C.3   126  VAL126      0.0019
     47  CG2       -0.4220    3.2950   15.9220 C.3   126  VAL126      0.0019
     48  N         -2.9060   12.3680   16.8080 N.3   133  VAL133     -0.1231
     49  CA        -2.2660   11.2860   17.5590 C.3   133  VAL133      0.1692
     50  C         -2.3250    9.9810   16.7650 C.2   133  VAL133      0.2591
     51  O         -1.2900    9.3950   16.4440 O.2   133  VAL133     -0.2718
     52  CB        -2.9220   11.0890   18.9340 C.3   133  VAL133      0.0266
     53  CG1       -2.3120    9.8810   19.6330 C.3   133  VAL133      0.0020
     54  CG2       -2.7310   12.3400   19.7700 C.3   133  VAL133      0.0020
     55  N         -3.5320    9.5210   16.4600 N.am  134  ILE134     -0.1980
     56  CA        -3.6830    8.3190   15.6550 C.3   134  ILE134      0.1595
     57  C         -4.6180    8.6540   14.5120 C.2   134  ILE134      0.2287
     58  O         -5.7300    9.1350   14.7350 O.2   134  ILE134     -0.2864
     59  CB        -4.2710    7.1360   16.4420 C.3   134  ILE134      0.0276
     60  CG1       -4.4260    5.9360   15.4990 C.3   134  ILE134      0.0022
     61  CG2       -5.6120    7.5190   17.0510 C.3   134  ILE134      0.0022
     62  CD1       -4.7410    4.6250   16.1930 C.3   134  ILE134      0.0001
     63  N        -13.9390    1.2570   21.1980 N.3   161  TYR161     -0.1227
     64  CA       -13.0900    0.7030   22.2480 C.3   161  TYR161      0.1736
     65  C        -12.2190    1.7360   22.9790 C.2   161  TYR161      0.2595
     66  O        -12.0280    1.6440   24.1890 O.2   161  TYR161     -0.2718
     67  CB       -12.2080   -0.4220   21.6900 C.3   161  TYR161      0.0548
     68  CG       -10.9800    0.0460   20.9400 C.ar  161  TYR161     -0.0200
     69  CD1      -11.0900    0.6570   19.6940 C.ar  161  TYR161     -0.0009
     70  CD2       -9.7060   -0.1000   21.4940 C.ar  161  TYR161     -0.0009
     71  CE1       -9.9660    1.1150   19.0180 C.ar  161  TYR161      0.0417
     72  CE2       -8.5720    0.3580   20.8270 C.ar  161  TYR161      0.0417
     73  CZ        -8.7090    0.9680   19.5890 C.ar  161  TYR161      0.1957
     74  OH        -7.6010    1.4550   18.9290 O.3   161  TYR161     -0.2866
     75  N        -11.6980    2.7200   22.2560 N.am  162  GLN162     -0.1979
     76  CA       -10.8590    3.7400   22.8790 C.3   162  GLN162      0.1601
     77  C        -11.5840    4.5590   23.9490 C.2   162  GLN162      0.2287
     78  O        -10.9830    4.9340   24.9630 O.2   162  GLN162     -0.2864
     79  CB       -10.2830    4.6650   21.8090 C.3   162  GLN162      0.0394
     80  CG        -9.1990    4.0020   20.9850 C.3   162  GLN162      0.0908
     81  CD        -8.7300    4.8490   19.8200 C.2   162  GLN162      0.2608
     82  OE1       -8.7790    6.0790   19.8700 O.2   162  GLN162     -0.2717
     83  NE2       -8.2500    4.1910   18.7710 N.am  162  GLN162     -0.0878
     84  N        -11.8440    2.2780   26.8580 N.3   165  PHE165     -0.1241
     85  CA       -10.5390    2.2410   27.5020 C.3   165  PHE165      0.1605
     86  C        -10.3840    3.4620   28.3950 C.2   165  PHE165      0.2264
     87  O         -9.9190    3.3540   29.5250 O.2   165  PHE165     -0.2867
     88  CB        -9.4140    2.2490   26.4520 C.3   165  PHE165      0.0534
     89  CG        -9.0640    0.8890   25.8970 C.ar  165  PHE165     -0.0203
     90  CD1       -9.9520   -0.1830   25.9920 C.ar  165  PHE165     -0.0042
     91  CD2       -7.8440    0.6920   25.2550 C.ar  165  PHE165     -0.0042
     92  CE1       -9.6220   -1.4330   25.4530 C.ar  165  PHE165     -0.0003
     93  CE2       -7.5010   -0.5510   24.7110 C.ar  165  PHE165     -0.0003
     94  CZ        -8.3860   -1.6160   24.8070 C.ar  165  PHE165     -0.0000
     95  N         -6.6140  -10.5230   23.2550 N.3   186  LEU186     -0.1245
     96  CA        -6.2770   -9.3100   22.5140 C.3   186  LEU186      0.1561
     97  C         -5.1440   -9.5370   21.5160 C.2   186  LEU186      0.2260
     98  O         -5.2540   -9.1780   20.3440 O.2   186  LEU186     -0.2867
     99  CB        -5.8730   -8.1880   23.4750 C.3   186  LEU186      0.0270
    100  CG        -5.6220   -6.8240   22.8170 C.3   186  LEU186      0.0019
    101  CD1       -6.9560   -6.2160   22.4150 C.3   186  LEU186      0.0001
    102  CD2       -4.8900   -5.8940   23.7710 C.3   186  LEU186      0.0001
    103  N         -6.0540   -9.3320   17.0910 N.3   190  VAL190     -0.1245
    104  CA        -5.5030   -8.3750   16.1290 C.3   190  VAL190      0.1561
    105  C         -4.2290   -8.8330   15.4420 C.2   190  VAL190      0.2260
    106  O         -3.6680   -8.1000   14.6330 O.2   190  VAL190     -0.2867
    107  CB        -5.2360   -6.9850   16.7690 C.3   190  VAL190      0.0252
    108  CG1       -6.5510   -6.3620   17.2150 C.3   190  VAL190      0.0019
    109  CG2       -4.2620   -7.1070   17.9370 C.3   190  VAL190      0.0019
    110  N        -13.1480   -4.3430   17.5300 N.3   216  LEU216     -0.1245
    111  CA       -12.9880   -3.2080   18.4260 C.3   216  LEU216      0.1561
    112  C        -14.2070   -2.2880   18.4620 C.2   216  LEU216      0.2260
    113  O        -14.1850   -1.2330   19.0990 O.2   216  LEU216     -0.2867
    114  CB       -11.7270   -2.4320   18.0400 C.3   216  LEU216      0.0270
    115  CG       -10.4750   -3.3200   18.0090 C.3   216  LEU216      0.0019
    116  CD1       -9.2660   -2.4930   17.6410 C.3   216  LEU216      0.0001
    117  CD2      -10.2670   -3.9780   19.3630 C.3   216  LEU216      0.0001
    118  N         -4.8740    6.6470   26.6660 N.3   262  TYR262     -0.1241
    119  CA        -6.1090    6.8130   25.9060 C.3   262  TYR262      0.1605
    120  C         -6.9650    7.9430   26.4640 C.2   262  TYR262      0.2264
    121  O         -7.4730    8.7880   25.7240 O.2   262  TYR262     -0.2867
    122  CB        -6.9150    5.5040   25.9270 C.3   262  TYR262      0.0534
    123  CG        -6.2740    4.3740   25.1430 C.ar  262  TYR262     -0.0201
    124  CD1       -6.6600    4.0980   23.8270 C.ar  262  TYR262     -0.0009
    125  CD2       -5.2550    3.6030   25.7060 C.ar  262  TYR262     -0.0009
    126  CE1       -6.0420    3.0800   23.0890 C.ar  262  TYR262      0.0417
    127  CE2       -4.6340    2.5900   24.9870 C.ar  262  TYR262      0.0417
    128  CZ        -5.0240    2.3310   23.6800 C.ar  262  TYR262      0.1957
    129  OH        -4.3710    1.3490   22.9640 O.3   262  TYR262     -0.2866
    130  N         -6.2920   11.2930   24.9230 N.3   265  ILE265     -0.1245
    131  CA        -6.2940   11.5340   23.4840 C.3   265  ILE265      0.1561
    132  C         -6.8250   12.9280   23.1340 C.2   265  ILE265      0.2260
    133  O         -6.1280   13.7120   22.4980 O.2   265  ILE265     -0.2867
    134  CB        -7.1040   10.4480   22.7410 C.3   265  ILE265      0.0252
    135  CG1       -6.3350    9.1220   22.7970 C.3   265  ILE265      0.0019
    136  CG2       -7.3330   10.8590   21.2870 C.3   265  ILE265      0.0019
    137  CD1       -7.0600    7.9470   22.1880 C.3   265  ILE265      0.0001
    138  N         -4.5050   -3.1680   12.1890 N.3   293  VAL293     -0.1245
    139  CA        -5.5610   -2.1650   12.2530 C.3   293  VAL293      0.1561
    140  C         -4.9610   -0.7640   12.2310 C.2   293  VAL293      0.2260
    141  O         -5.5310    0.1550   11.6390 O.2   293  VAL293     -0.2867
    142  CB        -6.4380   -2.3270   13.5220 C.3   293  VAL293      0.0252
    143  CG1       -7.1950   -3.6380   13.4560 C.3   293  VAL293      0.0019
    144  CG2       -5.5720   -2.2680   14.7810 C.3   293  VAL293      0.0019
    145  N         -6.3250    1.7380    9.4830 N.3   297  TRP297     -0.1241
    146  CA        -7.0130    2.9670    9.8610 C.3   297  TRP297      0.1605
    147  C         -6.2460    4.2140    9.4390 C.2   297  TRP297      0.2264
    148  O         -6.8510    5.2420    9.1260 O.2   297  TRP297     -0.2867
    149  CB        -7.2590    3.0180   11.3740 C.3   297  TRP297      0.0550
    150  CG        -8.0990    1.8920   11.9110 C.ar  297  TRP297      0.0003
    151  CD1       -9.0520    1.1780   11.2370 C.ar  297  TRP297      0.0946
    152  CD2       -8.0850    1.3760   13.2480 C.ar  297  TRP297      0.0152
    153  NE1       -9.6280    0.2500   12.0720 N.ar  297  TRP297     -0.2442
    154  CE2       -9.0540    0.3510   13.3120 C.ar  297  TRP297      0.0810
    155  CE3       -7.3480    1.6830   14.4000 C.ar  297  TRP297      0.0012
    156  CZ2       -9.3050   -0.3680   14.4840 C.ar  297  TRP297      0.0191
    157  CZ3       -7.5970    0.9690   15.5620 C.ar  297  TRP297      0.0001
    158  CH2       -8.5680   -0.0440   15.5950 C.ar  297  TRP297      0.0015
    159  N         -1.0270   -6.5980   13.8400 N.3   323  HIS323     -0.1226
    160  CA        -0.6300   -5.4780   14.6760 C.3   323  HIS323      0.1752
    161  C          0.7370   -5.5380   15.3600 C.2   323  HIS323      0.2596
    162  O          1.4500   -4.5310   15.4200 O.2   323  HIS323     -0.2718
    163  CB        -1.6920   -5.2450   15.7460 C.3   323  HIS323      0.0759
    164  CG        -1.3750   -4.1000   16.6510 C.ar  323  HIS323      0.0818
    165  ND1       -1.3480   -2.7930   16.2120 N.ar  323  HIS323     -0.2268
    166  CD2       -1.0410   -4.0670   17.9630 C.ar  323  HIS323      0.1154
    167  CE1       -1.0120   -2.0030   17.2170 C.ar  323  HIS323      0.1986
    168  NE2       -0.8200   -2.7500   18.2900 N.ar  323  HIS323     -0.2212
    169  N          1.0940   -6.7060   15.8800 N.am  324  TRP324     -0.1976
    170  CA         2.3520   -6.8720   16.6010 C.3   324  TRP324      0.1640
    171  C          3.5230   -7.0700   15.6460 C.2   324  TRP324      0.2290
    172  O          4.2570   -8.0580   15.7050 O.2   324  TRP324     -0.2864
    173  CB         2.1930   -8.0380   17.5770 C.3   324  TRP324      0.0576
    174  CG         0.8170   -8.0080   18.2120 C.ar  324  TRP324      0.0006
    175  CD1       -0.2770   -8.7390   17.8380 C.ar  324  TRP324      0.0946
    176  CD2        0.3660   -7.1130   19.2430 C.ar  324  TRP324      0.0152
    177  NE1       -1.3820   -8.3490   18.5660 N.ar  324  TRP324     -0.2442
    178  CE2       -1.0140   -7.3570   19.4360 C.ar  324  TRP324      0.0810
    179  CE3        0.9930   -6.1280   20.0190 C.ar  324  TRP324      0.0012
    180  CZ2       -1.7770   -6.6520   20.3730 C.ar  324  TRP324      0.0191
    181  CZ3        0.2350   -5.4240   20.9500 C.ar  324  TRP324      0.0001
    182  CH2       -1.1370   -5.6900   21.1190 C.ar  324  TRP324      0.0015
@<TRIPOS>BOND
     1   148   147    2
     2   147   146    1
     3   145   146    1
     4   146   149    1
     5   151   150   ar
     6   151   153   ar
     7   149   150    1
     8   141   140    2
     9   150   152   ar
    10   153   154   ar
    11   138   139    1
    12   140   139    1
    13   139   142    1
    14    43    44    2
    15    43    42    1
    16   152   154   ar
    17   152   155   ar
    18   154   156   ar
    19   143   142    1
    20   142   144    1
    21    41    42    1
    22    42    45    1
    23   159   160    1
    24   155   157   ar
    25   156   158   ar
    26    57    58    2
    27    57    56    1
    28   106   105    2
    29   160   161    1
    30   160   163    1
    31    45    46    1
    32    45    47    1
    33   161   162    2
    34   161   169   am
    35   105   104    1
    36    60    62    1
    37    60    59    1
    38   157   158   ar
    39   171   172    2
    40   171   170    1
    41    56    59    1
    42    56    55    1
    43   163   164    1
    44   169   170    1
    45   104   107    1
    46   104   103    1
    47   165   164   ar
    48   165   167   ar
    49    59    61    1
    50    51    50    2
    51    55    50   am
    52   170   173    1
    53   164   166   ar
    54    50    49    1
    55   107   108    1
    56   107   109    1
    57    48    49    1
    58   167   168   ar
    59   110   111    1
    60    49    52    1
    61   173   174    1
    62   116   115    1
    63   175   174   ar
    64   175   177   ar
    65    12    13    1
    66   166   168   ar
    67   115   114    1
    68   115   117    1
    69   114   111    1
    70   174   176   ar
    71    34    35    1
    72    34    40    1
    73    35    38    1
    74    35    36    1
    75   111   112    1
    76   112   113    2
    77    13    14    1
    78    13    16    1
    79    39    40    1
    80    39    38    1
    81   177   178   ar
    82    15    14    2
    83    83    81   am
    84    74    73    1
    85    52    53    1
    86    52    54    1
    87    18    17   ar
    88    37    36    2
    89    71    73   ar
    90    71    69   ar
    91    14    20   am
    92   176   178   ar
    93   176   179   ar
    94    16    17    1
    95   178   180   ar
    96    73    72   ar
    97    69    68   ar
    98    81    82    2
    99    81    80    1
   100    17    19   ar
   101   179   181   ar
   102    98    97    2
   103   180   182   ar
   104    20    21    1
   105    72    70   ar
   106    68    70   ar
   107    68    67    1
   108   181   182   ar
   109    80    79    1
   110    63    64    1
   111   136   134    1
   112    21    22    1
   113    21    24    1
   114    22    23    2
   115    97    96    1
   116    67    64    1
   117    79    76    1
   118   137   135    1
   119    64    65    1
   120    75    76    1
   121    75    65   am
   122   101   100    1
   123   133   132    2
   124    96    95    1
   125    96    99    1
   126    24    25    1
   127   134   135    1
   128   134   131    1
   129     4     3    2
   130   100    99    1
   131   100   102    1
   132    76    77    1
   133    25    27   ar
   134    25    26   ar
   135   129   128    1
   136    65    66    2
   137    30    27   ar
   138    30    32   ar
   139    27    29   ar
   140    26    28   ar
   141   126   128   ar
   142   126   124   ar
   143    32    33   ar
   144   132   131    1
   145    29    28   ar
   146    29    31   ar
   147    33    31   ar
   148     1     2    1
   149   131   130    1
   150   128   127   ar
   151   124   123   ar
   152     3     2    1
   153    77    78    2
   154     2     5    1
   155     5     6    1
   156     7     6   ar
   157     7     9   ar
   158    93    94   ar
   159    93    91   ar
   160    94    92   ar
   161   127   125   ar
   162   123   125   ar
   163   123   122    1
   164    91    89   ar
   165     6     8   ar
   166     9    11   ar
   167    92    90   ar
   168   121   120    2
   169    89    90   ar
   170    89    88    1
   171   119   122    1
   172   119   120    1
   173   119   118    1
   174    88    85    1
   175     8    10   ar
   176    11    10   ar
   177    84    85    1
   178    85    86    1
   179    86    87    2
