@<TRIPOS>MOLECULE
tmp/2zjhA00.pdb
 188 175 0 0 0
SMALL
GASTEIGER

@<TRIPOS>ATOM
      1  N         75.0990   44.3470   28.6560 N.3    15  GLY15      -0.1210
      2  CA        74.7630   44.0490   27.2610 C.3    15  GLY15       0.1956
      3  C         75.9430   43.7020   26.3700 C.2    15  GLY15       0.2612
      4  O         75.7690   43.4670   25.1730 O.2    15  GLY15      -0.2717
      5  N         77.1360   43.6490   26.9620 N.am   16  GLN16      -0.1965
      6  CA        78.3910   43.4930   26.2270 C.3    16  GLN16       0.1733
      7  C         79.0700   42.1300   26.4820 C.2    16  GLN16       0.2616
      8  O         80.1960   41.9000   26.0320 O.2    16  GLN16      -0.2715
      9  CB        79.3280   44.6600   26.5830 C.3    16  GLN16       0.0408
     10  CG        80.3750   45.0220   25.5320 C.3    16  GLN16       0.0908
     11  CD        80.7970   46.4900   25.6020 C.2    16  GLN16       0.2608
     12  OE1       81.9190   46.8160   26.0030 O.2    16  GLN16      -0.2717
     13  NE2       79.8910   47.3810   25.2110 N.am   16  GLN16      -0.0878
     14  N         78.3810   41.2360   27.1970 N.am   17  GLY17      -0.1955
     15  CA        78.8620   39.8680   27.4380 C.3    17  GLY17       0.1869
     16  C         79.6840   39.6810   28.7030 C.2    17  GLY17       0.2309
     17  O         80.1820   40.6510   29.2810 O.2    17  GLY17      -0.2863
     18  N         85.1070   35.9600   26.0220 N.3    34  LEU34      -0.1245
     19  CA        83.6620   35.8920   26.1780 C.3    34  LEU34       0.1561
     20  C         83.1980   34.4700   26.4820 C.2    34  LEU34       0.2260
     21  O         83.6540   33.5120   25.8550 O.2    34  LEU34      -0.2867
     22  CB        83.0030   36.3700   24.8920 C.3    34  LEU34       0.0270
     23  CG        81.5900   36.9200   24.9920 C.3    34  LEU34       0.0019
     24  CD1       81.6340   38.4390   24.9620 C.3    34  LEU34       0.0001
     25  CD2       80.7720   36.3790   23.8410 C.3    34  LEU34       0.0001
     26  N         80.3560   31.8220   26.3430 N.3    36  ASP36      -0.1239
     27  CA        79.1860   31.6480   25.4930 C.3    36  ASP36       0.1674
     28  C         78.6520   30.2140   25.4730 C.2    36  ASP36       0.2266
     29  O         79.2660   29.3240   24.8770 O.2    36  ASP36      -0.2867
     30  CB        79.5280   32.1220   24.0750 C.3    36  ASP36       0.1410
     31  CG        78.3170   32.1850   23.1620 C.2    36  ASP36       0.3668
     32  OD1       77.1650   32.0860   23.6480 O.co2  36  ASP36      -0.2456
     33  OD2       78.5300   32.3410   21.9400 O.co2  36  ASP36      -0.2456
     34  N         75.9370   29.4440   24.0250 N.3    38  GLY38      -0.1210
     35  CA        75.1470   29.3610   22.7970 C.3    38  GLY38       0.1956
     36  C         75.9390   29.0050   21.5460 C.2    38  GLY38       0.2612
     37  O         75.3670   28.9010   20.4550 O.2    38  GLY38      -0.2717
     38  N         77.2510   28.8320   21.6990 N.am   39  SER39      -0.1952
     39  CA        78.1170   28.4120   20.6010 C.3    39  SER39       0.1924
     40  C         79.1210   27.3730   21.0850 C.2    39  SER39       0.2314
     41  O         79.1970   27.1050   22.2870 O.2    39  SER39      -0.2863
     42  CB        78.8270   29.6140   19.9660 C.3    39  SER39       0.2116
     43  OG        79.5740   30.3500   20.9160 O.3    39  SER39      -0.2180
     44  N         77.2830   34.9950   12.0670 N.3    75  TYR75      -0.1241
     45  CA        76.1470   35.1420   12.9750 C.3    75  TYR75       0.1605
     46  C         75.0950   36.0130   12.2860 C.2    75  TYR75       0.2264
     47  O         75.3040   36.4720   11.1590 O.2    75  TYR75      -0.2867
     48  CB        76.5710   35.7540   14.3220 C.3    75  TYR75       0.0534
     49  CG        77.6720   35.0060   15.0640 C.ar   75  TYR75      -0.0201
     50  CD1       77.5710   33.6330   15.3180 C.ar   75  TYR75      -0.0009
     51  CD2       78.8030   35.6810   15.5360 C.ar   75  TYR75      -0.0009
     52  CE1       78.5780   32.9470   16.0030 C.ar   75  TYR75       0.0417
     53  CE2       79.8130   35.0040   16.2260 C.ar   75  TYR75       0.0417
     54  CZ        79.6930   33.6390   16.4550 C.ar   75  TYR75       0.1957
     55  OH        80.6850   32.9610   17.1330 O.3    75  TYR75      -0.2866
     56  N         81.4540   43.2130   12.3510 N.3   111  LYS111     -0.1231
     57  CA        80.4850   43.3930   13.4490 C.3   111  LYS111      0.1693
     58  C         80.6070   42.3570   14.5830 C.2   111  LYS111      0.2592
     59  O         79.6170   42.0330   15.2440 O.2   111  LYS111     -0.2718
     60  CB        79.0400   43.4380   12.9190 C.3   111  LYS111      0.0285
     61  CG        78.7080   44.6220   12.0080 C.3   111  LYS111      0.0035
     62  CD        77.3150   44.4660   11.3930 C.3   111  LYS111      0.0206
     63  CE        77.1750   45.2400   10.0800 C.3   111  LYS111      0.1093
     64  NZ        76.8690   46.6850   10.2930 N.3   111  LYS111     -0.1314
     65  N         81.8150   41.8400   14.8050 N.am  112  PHE112     -0.1976
     66  CA        82.0440   40.8670   15.8780 C.3   112  PHE112      0.1639
     67  C         82.6390   41.5040   17.1310 C.2   112  PHE112      0.2290
     68  O         82.0060   41.4950   18.1850 O.2   112  PHE112     -0.2864
     69  CB        82.8980   39.6810   15.4020 C.3   112  PHE112      0.0560
     70  CG        83.2170   38.6850   16.4900 C.ar  112  PHE112     -0.0200
     71  CD1       82.2130   37.9060   17.0600 C.ar  112  PHE112     -0.0042
     72  CD2       84.5210   38.5220   16.9430 C.ar  112  PHE112     -0.0042
     73  CE1       82.5040   36.9840   18.0630 C.ar  112  PHE112     -0.0003
     74  CE2       84.8200   37.6000   17.9440 C.ar  112  PHE112     -0.0003
     75  CZ        83.8100   36.8310   18.5010 C.ar  112  PHE112     -0.0000
     76  N         83.5890   44.4520   19.6270 N.3   114  ILE114     -0.1245
     77  CA        82.9330   45.7110   19.9820 C.3   114  ILE114      0.1561
     78  C         83.9690   46.7810   20.3090 C.2   114  ILE114      0.2260
     79  O         84.8400   46.5690   21.1540 O.2   114  ILE114     -0.2867
     80  CB        81.9680   45.5320   21.1830 C.3   114  ILE114      0.0252
     81  CG1       80.8210   44.5830   20.8160 C.3   114  ILE114      0.0019
     82  CG2       81.4130   46.8790   21.6400 C.3   114  ILE114      0.0019
     83  CD1       80.2020   43.8790   22.0080 C.3   114  ILE114      0.0001
     84  N         87.2930   42.5090   25.7460 N.3   119  TRP119     -0.1241
     85  CA        87.5470   41.1110   25.3930 C.3   119  TRP119      0.1605
     86  C         88.1130   40.9550   23.9770 C.2   119  TRP119      0.2264
     87  O         87.9910   41.8600   23.1440 O.2   119  TRP119     -0.2867
     88  CB        86.3010   40.2380   25.6040 C.3   119  TRP119      0.0550
     89  CG        85.0730   40.7140   24.8850 C.ar  119  TRP119      0.0003
     90  CD1       84.1080   41.5540   25.3730 C.ar  119  TRP119      0.0946
     91  CD2       84.6700   40.3720   23.5520 C.ar  119  TRP119      0.0152
     92  NE1       83.1320   41.7570   24.4250 N.ar  119  TRP119     -0.2442
     93  CE2       83.4530   41.0440   23.2980 C.ar  119  TRP119      0.0810
     94  CE3       85.2210   39.5670   22.5460 C.ar  119  TRP119      0.0012
     95  CZ2       82.7780   40.9330   22.0830 C.ar  119  TRP119      0.0191
     96  CZ3       84.5490   39.4580   21.3370 C.ar  119  TRP119      0.0001
     97  CH2       83.3410   40.1380   21.1170 C.ar  119  TRP119      0.0015
     98  N         86.1540   34.4570   22.0560 N.3   122  ILE122     -0.1245
     99  CA        84.9310   33.8040   22.4900 C.3   122  ILE122      0.1561
    100  C         85.1920   32.3410   22.8660 C.2   122  ILE122      0.2260
    101  O         85.9780   31.6520   22.2150 O.2   122  ILE122     -0.2867
    102  CB        83.8230   33.9300   21.4060 C.3   122  ILE122      0.0252
    103  CG1       82.5060   33.2980   21.8770 C.3   122  ILE122      0.0019
    104  CG2       84.2940   33.3570   20.0540 C.3   122  ILE122      0.0019
    105  CD1       81.3360   33.5990   20.9790 C.3   122  ILE122      0.0001
    106  N         81.5140   24.8200   14.3480 N.3   132  ARG132     -0.1245
    107  CA        81.8610   25.0830   12.9540 C.3   132  ARG132      0.1563
    108  C         83.3290   24.7420   12.6950 C.2   132  ARG132      0.2260
    109  O         84.1660   24.9450   13.5740 O.2   132  ARG132     -0.2867
    110  CB        81.5540   26.5360   12.5950 C.3   132  ARG132      0.0307
    111  CG        80.0800   26.7880   12.3470 C.3   132  ARG132      0.0489
    112  CD        79.5960   28.0040   13.1150 C.3   132  ARG132      0.2205
    113  NE        78.1630   28.2410   12.9390 N.pl3 132  ARG132     -0.0865
    114  CZ        77.4020   28.9440   13.7760 C.cat 132  ARG132      0.5346
    115  NH1       77.9200   29.4870   14.8750 N.pl3 132  ARG132      0.1354
    116  NH2       76.1090   29.0990   13.5180 N.pl3 132  ARG132      0.1354
    117  N         72.9390   22.6620   21.2610 N.3   190  TYR190     -0.1241
    118  CA        72.7720   23.7710   22.1940 C.3   190  TYR190      0.1605
    119  C         72.4520   23.1650   23.5660 C.2   190  TYR190      0.2264
    120  O         72.2830   21.9500   23.6930 O.2   190  TYR190     -0.2867
    121  CB        71.6100   24.6710   21.7720 C.3   190  TYR190      0.0534
    122  CG        71.7800   25.3710   20.4430 C.ar  190  TYR190     -0.0201
    123  CD1       72.4130   26.6140   20.3600 C.ar  190  TYR190     -0.0009
    124  CD2       71.2900   24.8030   19.2670 C.ar  190  TYR190     -0.0009
    125  CE1       72.5660   27.2650   19.1320 C.ar  190  TYR190      0.0417
    126  CE2       71.4350   25.4450   18.0400 C.ar  190  TYR190      0.0417
    127  CZ        72.0720   26.6740   17.9830 C.ar  190  TYR190      0.1957
    128  OH        72.2160   27.3040   16.7720 O.3   190  TYR190     -0.2866
    129  N         63.2270   25.6880   19.2060 N.3   216  LYS216     -0.1245
    130  CA        64.0250   25.3020   20.3660 C.3   216  LYS216      0.1561
    131  C         63.8790   26.2770   21.5310 C.2   216  LYS216      0.2260
    132  O         63.4440   27.4200   21.3520 O.2   216  LYS216     -0.2867
    133  CB        65.5040   25.1620   19.9830 C.3   216  LYS216      0.0271
    134  CG        66.1670   26.4590   19.5510 C.3   216  LYS216      0.0035
    135  CD        67.6100   26.2310   19.1190 C.3   216  LYS216      0.0206
    136  CE        68.2160   27.4860   18.4980 C.3   216  LYS216      0.1093
    137  NZ        67.5770   27.8370   17.1960 N.3   216  LYS216     -0.1314
    138  N         66.6240   27.3960   24.6440 N.3   218  ILE218     -0.1245
    139  CA        68.0090   27.1970   25.0730 C.3   218  ILE218      0.1561
    140  C         68.4730   28.1710   26.1560 C.2   218  ILE218      0.2260
    141  O         67.9050   29.2550   26.3250 O.2   218  ILE218     -0.2867
    142  CB        69.0080   27.2270   23.8770 C.3   218  ILE218      0.0252
    143  CG1       69.1400   28.6420   23.3020 C.3   218  ILE218      0.0019
    144  CG2       68.5930   26.2330   22.8050 C.3   218  ILE218      0.0019
    145  CD1       70.4550   28.8960   22.5800 C.3   218  ILE218      0.0001
    146  N         71.4080   30.5360   27.0640 N.3   220  ASP220     -0.1239
    147  CA        72.4410   31.2270   26.2930 C.3   220  ASP220      0.1674
    148  C         73.0670   32.3850   27.0660 C.2   220  ASP220      0.2266
    149  O         72.4720   33.4600   27.1860 O.2   220  ASP220     -0.2867
    150  CB        71.8520   31.7400   24.9730 C.3   220  ASP220      0.1410
    151  CG        72.9080   31.9850   23.9120 C.2   220  ASP220      0.3668
    152  OD1       74.0940   32.1840   24.2610 O.co2 220  ASP220     -0.2456
    153  OD2       72.5440   31.9760   22.7150 O.co2 220  ASP220     -0.2456
    154  N         75.4970   33.9490   25.9960 N.3   222  GLY222     -0.1210
    155  CA        75.9520   34.8590   24.9520 C.3   222  GLY222      0.1956
    156  C         74.8900   35.8420   24.4900 C.2   222  GLY222      0.2612
    157  O         75.2140   36.8760   23.9000 O.2   222  GLY222     -0.2717
    158  N         73.6250   35.5100   24.7480 N.am  223  THR223     -0.1952
    159  CA        72.4990   36.3910   24.4440 C.3   223  THR223      0.1897
    160  C         72.1710   37.2290   25.6780 C.2   223  THR223      0.2313
    161  O         72.2380   36.7370   26.8080 O.2   223  THR223     -0.2863
    162  CB        71.2600   35.5860   23.9830 C.3   223  THR223      0.1794
    163  OG1       71.6150   34.7580   22.8670 O.3   223  THR223     -0.2208
    164  CG2       70.1180   36.5110   23.5680 C.3   223  THR223      0.0378
    165  N         64.7120   35.9150   24.7510 N.3   227  ARG227     -0.1245
    166  CA        64.1990   35.9290   23.3860 C.3   227  ARG227      0.1563
    167  C         63.0320   34.9680   23.2410 C.2   227  ARG227      0.2260
    168  O         63.2220   33.7530   23.2190 O.2   227  ARG227     -0.2867
    169  CB        65.2990   35.5890   22.3770 C.3   227  ARG227      0.0307
    170  CG        66.4780   36.5240   22.3970 C.3   227  ARG227      0.0489
    171  CD        67.4440   36.1490   21.3050 C.3   227  ARG227      0.2205
    172  NE        66.7560   36.0260   20.0290 N.pl3 227  ARG227     -0.0865
    173  CZ        67.3710   36.1870   18.8660 C.cat 227  ARG227      0.5346
    174  NH1       68.6790   36.4630   18.8240 N.pl3 227  ARG227      0.1354
    175  NH2       66.6840   36.0720   17.7350 N.pl3 227  ARG227      0.1354
    176  N         64.4060   31.8900   15.9930 N.3   300  THR300     -0.1218
    177  CA        65.1840   30.7000   16.3480 C.3   300  THR300      0.1862
    178  C         64.6850   30.0010   17.6180 C.2   300  THR300      0.2287
    179  O         65.1030   28.8820   17.9100 O.2   300  THR300     -0.2866
    180  CB        66.6920   31.0110   16.4920 C.3   300  THR300      0.1770
    181  OG1       66.8670   32.2800   17.1370 O.3   300  THR300     -0.2211
    182  CG2       67.3680   31.0300   15.1230 C.3   300  THR300      0.0375
    183  N         65.3090   32.0190   23.8860 N.3   303  CYS303     -0.1235
    184  CA        66.6900   32.1000   24.3210 C.3   303  CYS303      0.1677
    185  C         66.7100   32.6630   25.7180 C.2   303  CYS303      0.2270
    186  O         66.4750   33.8550   25.9310 O.2   303  CYS303     -0.2867
    187  CB        67.5320   32.9450   23.3630 C.3   303  CYS303      0.0956
    188  SG        67.4530   32.3580   21.6590 S.3   303  CYS303     -0.0801
@<TRIPOS>BOND
     1    63    64    1
     2    63    62    1
     3    47    46    2
     4    62    61    1
     5    61    60    1
     6    44    45    1
     7    46    45    1
     8   111   110    1
     9   111   112    1
    10    56    57    1
    11   110   107    1
    12   108   107    1
    13   108   109    2
    14    60    57    1
    15   113   112    1
    16   113   114    2
    17   107   106    1
    18    45    48    1
    19    57    58    1
    20   116   114    1
    21   114   115    1
    22    48    49    1
    23    58    65   am
    24    58    59    2
    25    65    66    1
    26    49    50   ar
    27    49    51   ar
    28   182   180    1
    29    50    52   ar
    30    69    66    1
    31    69    70    1
    32    51    53   ar
    33    66    67    1
    34   176   177    1
    35    52    54   ar
    36    53    54   ar
    37   177   180    1
    38   177   178    1
    39    54    55    1
    40    70    72   ar
    41    70    71   ar
    42   180   181    1
    43   128   127    1
    44    72    74   ar
    45    71    73   ar
    46    67    68    2
    47   137   136    1
    48   178   179    2
    49   175   173    1
    50    74    75   ar
    51   127   126   ar
    52   127   125   ar
    53   126   124   ar
    54    73    75   ar
    55   136   135    1
    56   174   173    1
    57   173   172    2
    58   135   134    1
    59   125   123   ar
    60   129   130    1
    61   124   122   ar
    62   134   133    1
    63    76    77    1
    64    42    39    1
    65    42    43    1
    66    77    78    1
    67    77    80    1
    68   133   130    1
    69   172   171    1
    70   104   102    1
    71    78    79    2
    72   123   122   ar
    73   130   131    1
    74   122   121    1
    75    37    36    2
    76    39    40    1
    77    39    38    1
    78    81    80    1
    79    81    83    1
    80   105   103    1
    81    40    41    2
    82    97    96   ar
    83    97    95   ar
    84    80    82    1
    85   117   118    1
    86   171   170    1
    87    96    94   ar
    88   132   131    2
    89   102   103    1
    90   102    99    1
    91    36    38   am
    92    36    35    1
    93   188   187    1
    94   121   118    1
    95    33    31   ar
    96    98    99    1
    97    95    93   ar
    98   118   119    1
    99   101   100    2
   100   169   170    1
   101   169   166    1
   102    99   100    1
   103    94    91   ar
   104   145   143    1
   105   153   151   ar
   106    35    34    1
   107   144   142    1
   108   163   162    1
   109    87    86    2
   110    31    32   ar
   111    31    30    1
   112   168   167    2
   113   167   166    1
   114    93    91   ar
   115    93    92   ar
   116   143   142    1
   117   187   184    1
   118   166   165    1
   119    91    89   ar
   120   119   120    2
   121   164   162    1
   122    25    23    1
   123   142   139    1
   124   183   184    1
   125   157   156    2
   126   151   152   ar
   127   151   150    1
   128    86    85    1
   129   162   159    1
   130    30    27    1
   131   184   185    1
   132    92    90   ar
   133   159   158    1
   134   159   160    1
   135   156   158   am
   136   156   155    1
   137   138   139    1
   138    29    28    2
   139    89    90   ar
   140    89    88    1
   141    22    23    1
   142    22    19    1
   143   155   154    1
   144    24    23    1
   145   150   147    1
   146   139   140    1
   147     4     3    2
   148    13    11   am
   149    85    88    1
   150    85    84    1
   151    28    27    1
   152    27    26    1
   153    10    11    1
   154    10     9    1
   155    11    12    2
   156   160   161    2
   157   185   186    2
   158    21    20    2
   159    18    19    1
   160     8     7    2
   161   140   141    2
   162    19    20    1
   163     6     7    1
   164     6     9    1
   165     6     5    1
   166   147   146    1
   167   147   148    1
   168     3     5   am
   169     3     2    1
   170     7    14   am
   171   148   149    2
   172    14    15    1
   173     2     1    1
   174    15    16    1
   175    16    17    2
