@<TRIPOS>MOLECULE
tmp/2zjiA00.pdb
 190 178 0 0 0
SMALL
GASTEIGER

@<TRIPOS>ATOM
      1  N         77.0690   43.6700   26.9130 N.3    17  GLN17      -0.1245
      2  CA        78.2900   43.3730   26.1650 C.3    17  GLN17       0.1566
      3  C         78.8410   41.9750   26.4720 C.2    17  GLN17       0.2260
      4  O         79.8610   41.5650   25.9140 O.2    17  GLN17      -0.2867
      5  CB        79.3440   44.4420   26.4590 C.3    17  GLN17       0.0367
      6  CG        80.1270   44.8980   25.2470 C.3    17  GLN17       0.0905
      7  CD        80.7190   46.2800   25.4300 C.2    17  GLN17       0.2608
      8  OE1       81.7490   46.4450   26.0790 O.2    17  GLN17      -0.2717
      9  NE2       80.0710   47.2830   24.8500 N.am   17  GLN17      -0.0878
     10  N         85.0940   36.0290   26.1200 N.3    35  LEU35      -0.1245
     11  CA        83.6480   35.9900   26.3270 C.3    35  LEU35       0.1561
     12  C         83.1430   34.5670   26.5630 C.2    35  LEU35       0.2260
     13  O         83.4100   33.6660   25.7660 O.2    35  LEU35      -0.2867
     14  CB        82.9350   36.5950   25.1140 C.3    35  LEU35       0.0270
     15  CG        81.5000   37.0970   25.2670 C.3    35  LEU35       0.0019
     16  CD1       81.4740   38.4150   26.0270 C.3    35  LEU35       0.0001
     17  CD2       80.8490   37.2610   23.9020 C.3    35  LEU35       0.0001
     18  N         80.3490   31.9400   26.4360 N.3    37  ASP37      -0.1239
     19  CA        79.1780   31.7770   25.5730 C.3    37  ASP37       0.1674
     20  C         78.6780   30.3320   25.5170 C.2    37  ASP37       0.2266
     21  O         79.3000   29.4740   24.8850 O.2    37  ASP37      -0.2867
     22  CB        79.4960   32.2920   24.1610 C.3    37  ASP37       0.1410
     23  CG        78.2990   32.2380   23.2200 C.2    37  ASP37       0.3668
     24  OD1       77.1450   32.2020   23.6950 O.co2  37  ASP37      -0.2456
     25  OD2       78.5170   32.2420   21.9910 O.co2  37  ASP37      -0.2456
     26  N         76.0070   29.4980   24.0250 N.3    39  GLY39      -0.1210
     27  CA        75.2260   29.4060   22.7900 C.3    39  GLY39       0.1956
     28  C         76.0250   29.0810   21.5390 C.2    39  GLY39       0.2612
     29  O         75.4790   29.0860   20.4330 O.2    39  GLY39      -0.2717
     30  N         77.3180   28.8080   21.7120 N.am   40  SER40      -0.1952
     31  CA        78.1920   28.3920   20.6120 C.3    40  SER40       0.1924
     32  C         79.2390   27.3920   21.1070 C.2    40  SER40       0.2314
     33  O         79.3130   27.1180   22.3060 O.2    40  SER40      -0.2863
     34  CB        78.8500   29.6060   19.9440 C.3    40  SER40       0.2116
     35  OG        79.7020   30.3000   20.8390 O.3    40  SER40      -0.2180
     36  N         82.7170   31.6870    9.6860 N.3    74  VAL74      -0.1245
     37  CA        81.4890   31.7010   10.4820 C.3    74  VAL74       0.1561
     38  C         80.6760   32.9750   10.2190 C.2    74  VAL74       0.2260
     39  O         80.9680   34.0320   10.7870 O.2    74  VAL74      -0.2867
     40  CB        81.7750   31.5130   12.0000 C.3    74  VAL74       0.0252
     41  CG1       80.4800   31.5330   12.8080 C.3    74  VAL74       0.0019
     42  CG2       82.5250   30.2080   12.2450 C.3    74  VAL74       0.0019
     43  N         76.9470   35.1760   10.1730 N.3    76  TYR76      -0.1241
     44  CA        75.7020   35.3320   10.9290 C.3    76  TYR76       0.1605
     45  C         74.8730   36.5040   10.3930 C.2    76  TYR76       0.2264
     46  O         75.1640   37.0280    9.3140 O.2    76  TYR76      -0.2867
     47  CB        75.9670   35.4620   12.4390 C.3    76  TYR76       0.0534
     48  CG        77.1150   36.3750   12.8070 C.ar   76  TYR76      -0.0201
     49  CD1       78.4040   35.8690   12.9790 C.ar   76  TYR76      -0.0009
     50  CD2       76.9130   37.7420   12.9940 C.ar   76  TYR76      -0.0009
     51  CE1       79.4620   36.7000   13.3200 C.ar   76  TYR76       0.0417
     52  CE2       77.9660   38.5830   13.3370 C.ar   76  TYR76       0.0417
     53  CZ        79.2360   38.0550   13.4940 C.ar   76  TYR76       0.1957
     54  OH        80.2790   38.8820   13.8320 O.3    76  TYR76      -0.2866
     55  N         82.9550   36.1900   11.2610 N.3    81  TRP81      -0.1241
     56  CA        84.3730   36.0770   11.5800 C.3    81  TRP81       0.1605
     57  C         84.9820   34.8910   10.8430 C.2    81  TRP81       0.2264
     58  O         84.3520   33.8410   10.6990 O.2    81  TRP81      -0.2867
     59  CB        84.6440   36.0220   13.0950 C.3    81  TRP81       0.0550
     60  CG        84.1460   34.7970   13.8260 C.ar   81  TRP81       0.0003
     61  CD1       82.9960   34.6930   14.5560 C.ar   81  TRP81       0.0946
     62  CD2       84.8010   33.5210   13.9300 C.ar   81  TRP81       0.0152
     63  NE1       82.8850   33.4330   15.0930 N.ar   81  TRP81      -0.2442
     64  CE2       83.9770   32.6930   14.7250 C.ar   81  TRP81       0.0810
     65  CE3       85.9980   32.9950   13.4210 C.ar   81  TRP81       0.0012
     66  CZ2       84.3110   31.3650   15.0260 C.ar   81  TRP81       0.0191
     67  CZ3       86.3290   31.6730   13.7180 C.ar   81  TRP81       0.0001
     68  CH2       85.4860   30.8740   14.5120 C.ar   81  TRP81       0.0015
     69  N         81.6540   43.1160   12.3050 N.3   112  LYS112     -0.1231
     70  CA        80.6700   43.2640   13.3930 C.3   112  LYS112      0.1693
     71  C         80.7640   42.1780   14.4710 C.2   112  LYS112      0.2592
     72  O         79.7480   41.7470   15.0240 O.2   112  LYS112     -0.2718
     73  CB        79.2410   43.3560   12.8370 C.3   112  LYS112      0.0285
     74  CG        78.9390   44.6590   12.1270 C.3   112  LYS112      0.0035
     75  CD        77.7310   44.5320   11.2180 C.3   112  LYS112      0.0206
     76  CE        77.6230   45.7320   10.2930 C.3   112  LYS112      0.1093
     77  NZ        76.6730   45.4940    9.1680 N.3   112  LYS112     -0.1314
     78  N         81.9870   41.7430   14.7620 N.am  113  PHE113     -0.1976
     79  CA        82.2260   40.7400   15.7950 C.3   113  PHE113      0.1639
     80  C         82.7780   41.3840   17.0630 C.2   113  PHE113      0.2290
     81  O         82.1940   41.2470   18.1400 O.2   113  PHE113     -0.2864
     82  CB        83.1630   39.6360   15.2860 C.3   113  PHE113      0.0560
     83  CG        83.4430   38.5610   16.3010 C.ar  113  PHE113     -0.0200
     84  CD1       82.4590   37.6380   16.6490 C.ar  113  PHE113     -0.0042
     85  CD2       84.6900   38.4700   16.9090 C.ar  113  PHE113     -0.0042
     86  CE1       82.7110   36.6440   17.5900 C.ar  113  PHE113     -0.0003
     87  CE2       84.9510   37.4790   17.8530 C.ar  113  PHE113     -0.0003
     88  CZ        83.9600   36.5640   18.1920 C.ar  113  PHE113     -0.0000
     89  N         83.6600   44.5050   19.5450 N.3   115  ILE115     -0.1245
     90  CA        82.9470   45.7200   19.9300 C.3   115  ILE115      0.1561
     91  C         83.9320   46.8320   20.2870 C.2   115  ILE115      0.2260
     92  O         84.8650   46.6190   21.0660 O.2   115  ILE115     -0.2867
     93  CB        81.9670   45.4480   21.1040 C.3   115  ILE115      0.0252
     94  CG1       80.8960   44.4370   20.6730 C.3   115  ILE115      0.0019
     95  CG2       81.3190   46.7460   21.5950 C.3   115  ILE115      0.0019
     96  CD1       80.2430   43.6820   21.8140 C.3   115  ILE115      0.0001
     97  N         87.1380   42.5030   25.7920 N.3   120  TRP120     -0.1241
     98  CA        87.3720   41.1000   25.4380 C.3   120  TRP120      0.1605
     99  C         87.8990   40.9190   24.0110 C.2   120  TRP120      0.2264
    100  O         87.5850   41.7070   23.1140 O.2   120  TRP120     -0.2867
    101  CB        86.1330   40.2300   25.7010 C.3   120  TRP120      0.0550
    102  CG        84.8900   40.6610   24.9810 C.ar  120  TRP120      0.0003
    103  CD1       83.9040   41.4720   25.4660 C.ar  120  TRP120      0.0946
    104  CD2       84.4880   40.2890   23.6560 C.ar  120  TRP120      0.0152
    105  NE1       82.9180   41.6360   24.5230 N.ar  120  TRP120     -0.2442
    106  CE2       83.2500   40.9210   23.4020 C.ar  120  TRP120      0.0810
    107  CE3       85.0560   39.4890   22.6550 C.ar  120  TRP120      0.0012
    108  CZ2       82.5680   40.7770   22.1890 C.ar  120  TRP120      0.0191
    109  CZ3       84.3770   39.3450   21.4490 C.ar  120  TRP120      0.0001
    110  CH2       83.1460   39.9870   21.2280 C.ar  120  TRP120      0.0015
    111  N         86.1590   34.5000   22.1700 N.3   123  ILE123     -0.1245
    112  CA        84.9320   33.8440   22.6040 C.3   123  ILE123      0.1561
    113  C         85.1710   32.3760   22.9530 C.2   123  ILE123      0.2260
    114  O         85.8860   31.6640   22.2440 O.2   123  ILE123     -0.2867
    115  CB        83.7940   34.0070   21.5560 C.3   123  ILE123      0.0252
    116  CG1       82.4560   33.5390   22.1330 C.3   123  ILE123      0.0019
    117  CG2       84.1350   33.3020   20.2310 C.3   123  ILE123      0.0019
    118  CD1       81.2730   34.2340   21.5360 C.3   123  ILE123      0.0001
    119  N         72.9470   22.7580   21.2230 N.3   191  TYR191     -0.1241
    120  CA        72.7940   23.8900   22.1250 C.3   191  TYR191      0.1605
    121  C         72.4200   23.2960   23.4820 C.2   191  TYR191      0.2264
    122  O         72.0910   22.1090   23.5790 O.2   191  TYR191     -0.2867
    123  CB        71.6570   24.8020   21.6640 C.3   191  TYR191      0.0534
    124  CG        71.8800   25.5360   20.3590 C.ar  191  TYR191     -0.0201
    125  CD1       72.4280   26.8190   20.3440 C.ar  191  TYR191     -0.0009
    126  CD2       71.5110   24.9620   19.1420 C.ar  191  TYR191     -0.0009
    127  CE1       72.6210   27.5040   19.1450 C.ar  191  TYR191      0.0417
    128  CE2       71.7000   25.6360   17.9400 C.ar  191  TYR191      0.0417
    129  CZ        72.2550   26.9050   17.9490 C.ar  191  TYR191      0.1957
    130  OH        72.4430   27.5730   16.7610 O.3   191  TYR191     -0.2866
    131  N         63.1560   25.7000   19.0340 N.3   217  LYS217     -0.1245
    132  CA        63.9220   25.3020   20.2250 C.3   217  LYS217      0.1561
    133  C         63.8210   26.2910   21.3910 C.2   217  LYS217      0.2260
    134  O         63.3280   27.4090   21.2330 O.2   217  LYS217     -0.2867
    135  CB        65.3990   25.0620   19.8690 C.3   217  LYS217      0.0271
    136  CG        66.1280   26.2810   19.3170 C.3   217  LYS217      0.0035
    137  CD        67.5480   25.9310   18.8940 C.3   217  LYS217      0.0206
    138  CE        68.2510   27.1140   18.2400 C.3   217  LYS217      0.1093
    139  NZ        67.6770   27.4470   16.9060 N.3   217  LYS217     -0.1314
    140  N         66.6370   27.5010   24.5090 N.3   219  ILE219     -0.1245
    141  CA        68.0420   27.3440   24.8980 C.3   219  ILE219      0.1561
    142  C         68.4640   28.2700   26.0370 C.2   219  ILE219      0.2260
    143  O         67.8820   29.3380   26.2300 O.2   219  ILE219     -0.2867
    144  CB        69.0170   27.5200   23.6870 C.3   219  ILE219      0.0252
    145  CG1       68.9730   28.9530   23.1380 C.3   219  ILE219      0.0019
    146  CG2       68.7150   26.4980   22.5920 C.3   219  ILE219      0.0019
    147  CD1       70.1630   29.3290   22.2620 C.3   219  ILE219      0.0001
    148  N         71.5090   30.5320   27.1010 N.3   221  ASP221     -0.1239
    149  CA        72.5830   31.1670   26.3370 C.3   221  ASP221      0.1674
    150  C         73.1710   32.3960   27.0340 C.2   221  ASP221      0.2266
    151  O         72.5360   33.4470   27.1020 O.2   221  ASP221     -0.2867
    152  CB        72.0760   31.5260   24.9330 C.3   221  ASP221      0.1410
    153  CG        73.1720   32.0530   24.0180 C.2   221  ASP221      0.3668
    154  OD1       74.3430   32.1390   24.4460 O.co2 221  ASP221     -0.2456
    155  OD2       72.8520   32.3830   22.8570 O.co2 221  ASP221     -0.2456
    156  N         75.6690   34.0820   25.9680 N.3   223  GLY223     -0.1210
    157  CA        76.1620   34.9990   24.9390 C.3   223  GLY223      0.1956
    158  C         75.1170   35.9670   24.4110 C.2   223  GLY223      0.2612
    159  O         75.4560   36.9660   23.7790 O.2   223  GLY223     -0.2717
    160  N         73.8460   35.6590   24.6570 N.am  224  THR224     -0.1952
    161  CA        72.7400   36.5410   24.2930 C.3   224  THR224      0.1897
    162  C         72.3480   37.3790   25.5060 C.2   224  THR224      0.2313
    163  O         72.2540   36.8630   26.6210 O.2   224  THR224     -0.2863
    164  CB        71.5210   35.7370   23.7780 C.3   224  THR224      0.1794
    165  OG1       71.9260   34.8880   22.6960 O.3   224  THR224     -0.2208
    166  CG2       70.4080   36.6590   23.2910 C.3   224  THR224      0.0378
    167  N         64.9250   36.1230   24.5270 N.3   228  ARG228     -0.1245
    168  CA        64.2890   36.0280   23.2210 C.3   228  ARG228      0.1563
    169  C         63.1150   35.0630   23.2670 C.2   228  ARG228      0.2260
    170  O         63.2390   33.9490   23.7770 O.2   228  ARG228     -0.2867
    171  CB        65.2930   35.6070   22.1490 C.3   228  ARG228      0.0307
    172  CG        66.2090   36.7240   21.6850 C.3   228  ARG228      0.0489
    173  CD        67.1690   36.2380   20.6140 C.3   228  ARG228      0.2205
    174  NE        67.8800   37.3460   19.9820 N.pl3 228  ARG228     -0.0865
    175  CZ        68.9780   37.2170   19.2400 C.cat 228  ARG228      0.5346
    176  NH1       69.5150   36.0200   19.0270 N.pl3 228  ARG228      0.1354
    177  NH2       69.5450   38.2930   18.7100 N.pl3 228  ARG228      0.1354
    178  N         64.3500   32.0600   15.8460 N.3   314  CYS314     -0.1235
    179  CA        65.1530   30.8600   16.0810 C.3   314  CYS314      0.1677
    180  C         64.8270   30.1620   17.4100 C.2   314  CYS314      0.2270
    181  O         65.5550   29.2630   17.8410 O.2   314  CYS314     -0.2867
    182  CB        66.6490   31.1900   15.9830 C.3   314  CYS314      0.0956
    183  SG        67.1730   32.6450   16.9290 S.3   314  CYS314     -0.0801
    184  N         65.3380   32.0220   23.6710 N.3   317  VAL317     -0.1245
    185  CA        66.7060   32.1500   24.1480 C.3   317  VAL317      0.1561
    186  C         66.6830   32.7520   25.5450 C.2   317  VAL317      0.2260
    187  O         66.3080   33.9120   25.7290 O.2   317  VAL317     -0.2867
    188  CB        67.5890   32.9980   23.1950 C.3   317  VAL317      0.0252
    189  CG1       69.0130   33.0730   23.7120 C.3   317  VAL317      0.0019
    190  CG2       67.5760   32.4170   21.7890 C.3   317  VAL317      0.0019
@<TRIPOS>BOND
     1    77    76    1
     2    46    45    2
     3    36    37    1
     4    43    44    1
     5    38    37    1
     6    38    39    2
     7    76    75    1
     8    45    44    1
     9    37    40    1
    10    58    57    2
    11    57    56    1
    12    44    47    1
    13    75    74    1
    14    55    56    1
    15    56    59    1
    16    40    42    1
    17    40    41    1
    18    74    73    1
    19    69    70    1
    20    47    48    1
    21    48    49   ar
    22    48    50   ar
    23    73    70    1
    24    49    51   ar
    25    50    52   ar
    26    59    60    1
    27    51    53   ar
    28    52    53   ar
    29    70    71    1
    30    65    67   ar
    31    65    62   ar
    32    53    54    1
    33    67    68   ar
    34    60    62   ar
    35    60    61   ar
    36    62    64   ar
    37    71    78   am
    38    71    72    2
    39    68    66   ar
    40    61    63   ar
    41    64    66   ar
    42    64    63   ar
    43    78    79    1
    44    82    79    1
    45    82    83    1
    46    79    80    1
    47   178   179    1
    48   182   179    1
    49   182   183    1
    50   179   180    1
    51    83    84   ar
    52    83    85   ar
    53    84    86   ar
    54   130   129    1
    55   139   138    1
    56    85    87   ar
    57    80    81    2
    58   180   181    2
    59    86    88   ar
    60    87    88   ar
    61   128   129   ar
    62   128   126   ar
    63   129   127   ar
    64   138   137    1
    65   177   175    1
    66   137   136    1
    67   176   175    1
    68   131   132    1
    69   126   124   ar
    70   127   125   ar
    71   175   174    2
    72   136   135    1
    73    89    90    1
    74   135   132    1
    75    90    91    1
    76    90    93    1
    77    34    31    1
    78    34    35    1
    79   174   173    1
    80   132   133    1
    81   117   115    1
    82    91    92    2
    83   125   124   ar
    84   124   123    1
    85    29    28    2
    86    31    32    1
    87    31    30    1
    88   173   172    1
    89    94    93    1
    90    94    96    1
    91    93    95    1
    92    32    33    2
    93   119   120    1
    94   110   109   ar
    95   110   108   ar
    96   134   133    2
    97   109   107   ar
    98   118   116    1
    99    28    30   am
   100    28    27    1
   101   115   116    1
   102   115   112    1
   103   123   120    1
   104   172   171    1
   105   190   188    1
   106    25    23   ar
   107   120   121    1
   108   171   168    1
   109   111   112    1
   110   108   106   ar
   111   114   113    2
   112   147   145    1
   113   146   144    1
   114   112   113    1
   115   107   104   ar
   116   165   164    1
   117    27    26    1
   118   155   153   ar
   119   100    99    2
   120   145   144    1
   121   188   189    1
   122   188   185    1
   123    23    24   ar
   124    23    22    1
   125   168   169    1
   126   168   167    1
   127   169   170    2
   128   166   164    1
   129   106   104   ar
   130   106   105   ar
   131   121   122    2
   132   104   102   ar
   133   184   185    1
   134   144   141    1
   135   164   161    1
   136   159   158    2
   137    17    15    1
   138    99    98    1
   139   153   154   ar
   140   153   152    1
   141   185   186    1
   142    22    19    1
   143   161   160    1
   144   161   162    1
   145   158   160   am
   146   158   157    1
   147   140   141    1
   148   105   103   ar
   149     9     7   am
   150    21    20    2
   151   141   142    1
   152   152   149    1
   153   157   156    1
   154   102   103   ar
   155   102   101    1
   156    14    15    1
   157    14    11    1
   158     6     7    1
   159     6     5    1
   160    15    16    1
   161     7     8    2
   162    98   101    1
   163    98    97    1
   164   162   163    2
   165    20    19    1
   166   186   187    2
   167    19    18    1
   168    13    12    2
   169     4     3    2
   170   142   143    2
   171    10    11    1
   172     2     5    1
   173     2     3    1
   174     2     1    1
   175    11    12    1
   176   149   150    1
   177   149   148    1
   178   150   151    2
