@<TRIPOS>MOLECULE
tmp/2zjjA00.pdb
 185 178 0 0 0
SMALL
GASTEIGER

@<TRIPOS>ATOM
      1  N         24.1520   40.5090   29.2910 N.3    15  GLY15      -0.1210
      2  CA        24.4330   39.2630   28.5760 C.3    15  GLY15       0.1956
      3  C         24.3000   38.0010   29.4100 C.2    15  GLY15       0.2612
      4  O         24.6690   36.9150   28.9580 O.2    15  GLY15      -0.2717
      5  N         23.7660   38.1420   30.6220 N.am   16  GLN16      -0.1965
      6  CA        23.6610   37.0230   31.5600 C.3    16  GLN16       0.1733
      7  C         22.2100   36.6330   31.8600 C.2    16  GLN16       0.2617
      8  O         21.9440   35.5170   32.3130 O.2    16  GLN16      -0.2715
      9  CB        24.4250   37.3280   32.8540 C.3    16  GLN16       0.0408
     10  CG        25.9120   37.6290   32.6420 C.3    16  GLN16       0.0908
     11  CD        26.7360   37.5470   33.9170 C.2    16  GLN16       0.2608
     12  OE1       27.8650   37.0580   33.9040 O.2    16  GLN16      -0.2717
     13  NE2       26.1770   38.0250   35.0230 N.am   16  GLN16      -0.0878
     14  N         21.2820   37.5550   31.6090 N.am   17  GLY17      -0.1940
     15  CA        19.8550   37.2750   31.7470 C.3    17  GLY17       0.2014
     16  C         19.1320   38.1160   32.7790 C.2    17  GLY17       0.2638
     17  O         19.7170   38.5260   33.7820 O.2    17  GLY17      -0.2714
     18  N         17.8510   38.3680   32.5200 N.am   18  TYR18      -0.1973
     19  CA        16.9890   39.0940   33.4470 C.3    18  TYR18       0.1639
     20  C         16.2180   38.1150   34.3220 C.2    18  TYR18       0.2290
     21  O         15.6860   37.1170   33.8300 O.2    18  TYR18      -0.2864
     22  CB        16.0230   40.0070   32.6890 C.3    18  TYR18       0.0560
     23  CG        16.6970   41.1640   31.9860 C.ar   18  TYR18      -0.0198
     24  CD1       17.1780   41.0300   30.6820 C.ar   18  TYR18      -0.0009
     25  CD2       16.8510   42.3950   32.6220 C.ar   18  TYR18      -0.0009
     26  CE1       17.7980   42.0920   30.0310 C.ar   18  TYR18       0.0417
     27  CE2       17.4710   43.4630   31.9800 C.ar   18  TYR18       0.0417
     28  CZ        17.9400   43.3040   30.6860 C.ar   18  TYR18       0.1957
     29  OH        18.5510   44.3600   30.0500 O.3    18  TYR18      -0.2866
     30  N         15.3480   33.1780   36.1290 N.3    34  LEU34      -0.1245
     31  CA        15.5030   33.7010   34.7720 C.3    34  LEU34       0.1561
     32  C         14.1650   33.7530   34.0450 C.2    34  LEU34       0.2260
     33  O         13.4390   32.7590   33.9930 O.2    34  LEU34      -0.2867
     34  CB        16.4950   32.8430   33.9750 C.3    34  LEU34       0.0270
     35  CG        16.7460   33.2090   32.5070 C.3    34  LEU34       0.0019
     36  CD1       17.5940   34.4660   32.4040 C.3    34  LEU34       0.0001
     37  CD2       17.4100   32.0540   31.7670 C.3    34  LEU34       0.0001
     38  N         12.2300   33.6230   30.8120 N.3    36  ASP36      -0.1239
     39  CA        12.4820   33.0400   29.4940 C.3    36  ASP36       0.1674
     40  C         11.1820   32.7880   28.7330 C.2    36  ASP36       0.2266
     41  O         10.3980   31.9080   29.0970 O.2    36  ASP36      -0.2867
     42  CB        13.2910   31.7410   29.6410 C.3    36  ASP36       0.1410
     43  CG        13.7420   31.1570   28.3030 C.2    36  ASP36       0.3668
     44  OD1       13.6820   31.8480   27.2620 O.co2  36  ASP36      -0.2456
     45  OD2       14.1700   29.9870   28.2980 O.co2  36  ASP36      -0.2456
     46  N         18.4740   23.2170   25.6560 N.3    75  TYR75      -0.1227
     47  CA        18.1810   24.4760   24.9750 C.3    75  TYR75       0.1736
     48  C         19.2300   24.7200   23.8950 C.2    75  TYR75       0.2596
     49  O         20.1600   23.9250   23.7370 O.2    75  TYR75      -0.2718
     50  CB        18.1860   25.6530   25.9550 C.3    75  TYR75       0.0548
     51  CG        17.3210   25.4930   27.1870 C.ar   75  TYR75      -0.0200
     52  CD1       15.9360   25.6390   27.1190 C.ar   75  TYR75      -0.0009
     53  CD2       17.8950   25.2290   28.4300 C.ar   75  TYR75      -0.0009
     54  CE1       15.1410   25.5080   28.2560 C.ar   75  TYR75       0.0417
     55  CE2       17.1110   25.0940   29.5710 C.ar   75  TYR75       0.0417
     56  CZ        15.7370   25.2360   29.4780 C.ar   75  TYR75       0.1957
     57  OH        14.9600   25.1040   30.6040 O.3    75  TYR75      -0.2866
     58  N         19.0740   25.8210   23.1600 N.am   76  THR76      -0.1939
     59  CA        20.0840   26.2810   22.2060 C.3    76  THR76       0.2028
     60  C         21.3710   26.6090   22.9580 C.2    76  THR76       0.2642
     61  O         22.4690   26.2640   22.5130 O.2    76  THR76      -0.2714
     62  CB        19.6060   27.5290   21.4280 C.3    76  THR76       0.1808
     63  OG1       18.3090   27.2840   20.8700 O.3    76  THR76      -0.2208
     64  CG2       20.5770   27.8760   20.3020 C.3    76  THR76       0.0379
     65  N         21.2180   27.2700   24.1040 N.am   77  GLN77      -0.1976
     66  CA        22.3320   27.5750   24.9880 C.3    77  GLN77       0.1601
     67  C         22.0840   26.9570   26.3620 C.2    77  GLN77       0.2287
     68  O         21.2790   27.4610   27.1500 O.2    77  GLN77      -0.2864
     69  CB        22.5350   29.0890   25.0940 C.3    77  GLN77       0.0394
     70  CG        23.7810   29.5080   25.8660 C.3    77  GLN77       0.0908
     71  CD        23.9070   31.0160   26.0330 C.2    77  GLN77       0.2608
     72  OE1       24.5480   31.4920   26.9720 O.2    77  GLN77      -0.2717
     73  NE2       23.2960   31.7740   25.1240 N.am   77  GLN77      -0.0878
     74  N         26.6000   24.1040   30.9650 N.3   111  LYS111     -0.1231
     75  CA        26.6030   25.4350   30.3310 C.3   111  LYS111      0.1693
     76  C         25.3000   26.2210   30.5420 C.2   111  LYS111      0.2592
     77  O         24.9470   27.0870   29.7350 O.2   111  LYS111     -0.2718
     78  CB        26.9300   25.3340   28.8320 C.3   111  LYS111      0.0285
     79  CG        28.3390   24.8500   28.5130 C.3   111  LYS111      0.0035
     80  CD        28.5900   24.8770   27.0110 C.3   111  LYS111      0.0206
     81  CE        29.9530   24.3090   26.6610 C.3   111  LYS111      0.1093
     82  NZ        30.2780   24.4980   25.2160 N.3   111  LYS111     -0.1314
     83  N         24.5970   25.9170   31.6310 N.am  112  PHE112     -0.1976
     84  CA        23.2990   26.5210   31.9100 C.3   112  PHE112      0.1639
     85  C         23.4280   27.6820   32.8980 C.2   112  PHE112      0.2290
     86  O         23.1930   28.8360   32.5310 O.2   112  PHE112     -0.2864
     87  CB        22.3110   25.4550   32.4060 C.3   112  PHE112      0.0560
     88  CG        20.9420   25.9900   32.7310 C.ar  112  PHE112     -0.0200
     89  CD1       20.1140   26.4910   31.7300 C.ar  112  PHE112     -0.0042
     90  CD2       20.4730   25.9730   34.0420 C.ar  112  PHE112     -0.0042
     91  CE1       18.8450   26.9810   32.0330 C.ar  112  PHE112     -0.0003
     92  CE2       19.2050   26.4590   34.3550 C.ar  112  PHE112     -0.0003
     93  CZ        18.3900   26.9650   33.3490 C.ar  112  PHE112     -0.0000
     94  N         25.1600   30.5410   34.9380 N.3   114  ILE114     -0.1245
     95  CA        26.2460   31.4600   34.6000 C.3   114  ILE114      0.1561
     96  C         26.8710   32.0360   35.8710 C.2   114  ILE114      0.2260
     97  O         26.1630   32.4190   36.8060 O.2   114  ILE114     -0.2867
     98  CB        25.7670   32.6010   33.6570 C.3   114  ILE114      0.0252
     99  CG1       25.1060   32.0180   32.4010 C.3   114  ILE114      0.0019
    100  CG2       26.9320   33.5170   33.2670 C.3   114  ILE114      0.0019
    101  CD1       24.2450   33.0000   31.6240 C.3   114  ILE114      0.0001
    102  N         21.0340   34.3160   39.2940 N.3   119  TRP119     -0.1241
    103  CA        19.8060   33.5110   39.2100 C.3   119  TRP119      0.1605
    104  C         20.0450   32.0100   39.4000 C.2   119  TRP119      0.2264
    105  O         21.1080   31.4890   39.0520 O.2   119  TRP119     -0.2867
    106  CB        18.9890   33.8110   37.9420 C.3   119  TRP119      0.0550
    107  CG        19.6980   33.6140   36.6340 C.ar  119  TRP119      0.0003
    108  CD1       20.2860   34.5810   35.8710 C.ar  119  TRP119      0.0946
    109  CD2       19.8600   32.3820   35.9150 C.ar  119  TRP119      0.0152
    110  NE1       20.8170   34.0270   34.7300 N.ar  119  TRP119     -0.2442
    111  CE2       20.5710   32.6790   34.7320 C.ar  119  TRP119      0.0810
    112  CE3       19.4820   31.0550   36.1610 C.ar  119  TRP119      0.0012
    113  CZ2       20.9120   31.6990   33.7940 C.ar  119  TRP119      0.0191
    114  CZ3       19.8210   30.0790   35.2270 C.ar  119  TRP119      0.0001
    115  CH2       20.5280   30.4080   34.0590 C.ar  119  TRP119      0.0015
    116  N         14.8490   28.8660   36.1480 N.3   122  ILE122     -0.1245
    117  CA        14.3290   29.3360   34.8660 C.3   122  ILE122      0.1561
    118  C         12.7980   29.3180   34.8360 C.2   122  ILE122      0.2260
    119  O         12.1720   28.3360   35.2430 O.2   122  ILE122     -0.2867
    120  CB        14.9370   28.5370   33.6700 C.3   122  ILE122      0.0252
    121  CG1       14.5560   29.1830   32.3290 C.3   122  ILE122      0.0019
    122  CG2       14.5590   27.0430   33.7350 C.3   122  ILE122      0.0019
    123  CD1       15.4070   28.7330   31.1590 C.3   122  ILE122      0.0001
    124  N         12.0600   36.2510   22.3500 N.3   219  ASP219     -0.1225
    125  CA        12.7590   35.4650   23.3640 C.3   219  ASP219      0.1805
    126  C         13.5650   36.3430   24.3260 C.2   219  ASP219      0.2598
    127  O         14.6050   36.8940   23.9600 O.2   219  ASP219     -0.2718
    128  CB        13.6670   34.4360   22.6740 C.3   219  ASP219      0.1424
    129  CG        14.2710   33.4260   23.6380 C.2   219  ASP219      0.3668
    130  OD1       13.9800   33.4740   24.8520 O.co2 219  ASP219     -0.2456
    131  OD2       15.0480   32.5680   23.1680 O.co2 219  ASP219     -0.2456
    132  N         13.0790   36.4570   25.5600 N.am  220  SER220     -0.1938
    133  CA        13.7770   37.2070   26.6020 C.3   220  SER220      0.2055
    134  C         14.9690   36.4230   27.1480 C.2   220  SER220      0.2644
    135  O         15.8890   37.0050   27.7280 O.2   220  SER220     -0.2714
    136  CB        12.8200   37.5900   27.7350 C.3   220  SER220      0.2130
    137  OG        12.2790   36.4410   28.3610 O.3   220  SER220     -0.2179
    138  N         14.9450   35.1060   26.9500 N.am  221  GLY221     -0.1939
    139  CA        16.0270   34.2250   27.3850 C.3   221  GLY221      0.2014
    140  C         17.1470   34.0900   26.3690 C.2   221  GLY221      0.2639
    141  O         17.8840   33.1040   26.3770 O.2   221  GLY221     -0.2714
    142  N         17.2670   35.0820   25.4910 N.am  222  CYS222     -0.1953
    143  CA        18.3530   35.1420   24.5210 C.3   222  CYS222      0.1843
    144  C         18.9340   36.5490   24.4730 C.2   222  CYS222      0.2626
    145  O         18.1950   37.5340   24.4330 O.2   222  CYS222     -0.2714
    146  CB        17.8680   34.7190   23.1330 C.3   222  CYS222      0.0997
    147  SG        19.2010   34.4760   21.9350 S.3   222  CYS222     -0.0797
    148  N         20.2610   36.6320   24.4860 N.am  223  THR223     -0.1936
    149  CA        20.9600   37.9130   24.4570 C.3   223  THR223      0.2028
    150  C         20.8610   38.5770   23.0830 C.2   223  THR223      0.2642
    151  O         20.5220   39.7580   22.9810 O.2   223  THR223     -0.2714
    152  CB        22.4500   37.7500   24.8570 C.3   223  THR223      0.1808
    153  OG1       22.5370   37.2570   26.2000 O.3   223  THR223     -0.2208
    154  CG2       23.1850   39.0790   24.7720 C.3   223  THR223      0.0379
    155  N         21.1370   37.8010   22.0380 N.am  224  ASN224     -0.1971
    156  CA        21.3170   38.3290   20.6890 C.3   224  ASN224      0.1688
    157  C         20.0630   38.3840   19.8250 C.2   224  ASN224      0.2292
    158  O         19.1020   37.6430   20.0460 O.2   224  ASN224     -0.2864
    159  CB        22.3880   37.5160   19.9490 C.3   224  ASN224      0.1181
    160  CG        23.7880   37.7620   20.4820 C.2   224  ASN224      0.2629
    161  OD1       23.9930   38.5630   21.3940 O.2   224  ASN224     -0.2716
    162  ND2       24.7630   37.0700   19.9070 N.am  224  ASN224     -0.0877
    163  N         19.2210   36.9750   16.6870 N.3   226  ARG226     -0.1245
    164  CA        19.7350   35.8960   15.8490 C.3   226  ARG226      0.1563
    165  C         18.9610   35.8410   14.5390 C.2   226  ARG226      0.2260
    166  O         17.7310   35.8810   14.5340 O.2   226  ARG226     -0.2867
    167  CB        19.6650   34.5500   16.5790 C.3   226  ARG226      0.0307
    168  CG        20.3780   34.5300   17.9280 C.3   226  ARG226      0.0489
    169  CD        20.2140   33.1960   18.6400 C.3   226  ARG226      0.2205
    170  NE        21.1770   32.1970   18.1770 N.pl3 226  ARG226     -0.0865
    171  CZ        20.8590   31.0590   17.5630 C.cat 226  ARG226      0.5346
    172  NH1       19.5900   30.7430   17.3290 N.pl3 226  ARG226      0.1354
    173  NH2       21.8190   30.2250   17.1870 N.pl3 226  ARG226      0.1354
    174  N         15.5390   34.8680   16.0270 N.3   317  VAL317     -0.1245
    175  CA        15.3270   35.0060   17.4640 C.3   317  VAL317      0.1561
    176  C         15.4330   36.4840   17.8440 C.2   317  VAL317      0.2260
    177  O         16.5140   37.0750   17.7810 O.2   317  VAL317     -0.2867
    178  CB        16.3330   34.1560   18.2890 C.3   317  VAL317      0.0252
    179  CG1       16.0910   34.3270   19.7850 C.3   317  VAL317      0.0019
    180  CG2       16.2440   32.6800   17.9050 C.3   317  VAL317      0.0019
    181  N         17.1480   39.9780   23.6480 N.3   320  ALA320     -0.1245
    182  CA        17.2620   41.1780   24.4800 C.3   320  ALA320      0.1562
    183  C         17.6880   42.4070   23.6780 C.2   320  ALA320      0.2260
    184  O         17.3500   43.5330   24.0370 O.2   320  ALA320     -0.2867
    185  CB        18.2230   40.9350   25.6350 C.3   320  ALA320      0.0290
@<TRIPOS>BOND
     1   166   165    2
     2   165   164    1
     3   164   167    1
     4   164   163    1
     5   174   175    1
     6   167   168    1
     7   173   171    1
     8   172   171    1
     9   175   176    1
    10   175   178    1
    11   171   170    2
    12   177   176    2
    13   180   178    1
    14   168   169    1
    15   170   169    1
    16   178   179    1
    17   157   158    2
    18   157   156    1
    19   162   160   am
    20   159   160    1
    21   159   156    1
    22    64    62    1
    23   160   161    2
    24   156   155    1
    25    63    62    1
    26    62    59    1
    27   147   146    1
    28   155   150   am
    29    59    60    1
    30    59    58    1
    31   124   125    1
    32    61    60    2
    33   128   125    1
    34   128   129    1
    35    60    65   am
    36   151   150    2
    37   150   149    1
    38   146   143    1
    39    58    48   am
    40   131   129   ar
    41   125   126    1
    42   129   130   ar
    43   181   182    1
    44   183   184    2
    45   183   182    1
    46    49    48    2
    47    48    47    1
    48   127   126    2
    49    65    66    1
    50   126   132   am
    51   145   144    2
    52   149   148    1
    53   149   152    1
    54   144   148   am
    55   144   143    1
    56   182   185    1
    57   143   142    1
    58   154   152    1
    59   152   153    1
    60    47    46    1
    61    47    50    1
    62    66    69    1
    63    66    67    1
    64    69    70    1
    65    73    71   am
    66    82    81    1
    67   142   140   am
    68   132   133    1
    69    70    71    1
    70    50    51    1
    71    71    72    2
    72    67    68    2
    73   140   141    2
    74   140   139    1
    75   133   134    1
    76   133   136    1
    77    81    80    1
    78   138   134   am
    79   138   139    1
    80    80    79    1
    81    52    51   ar
    82    52    54   ar
    83   134   135    2
    84    51    53   ar
    85    44    43   ar
    86   136   137    1
    87    54    56   ar
    88    45    43   ar
    89    43    42    1
    90    53    55   ar
    91    79    78    1
    92     2     1    1
    93     2     3    1
    94    40    41    2
    95    40    39    1
    96    78    75    1
    97     4     3    2
    98     3     5   am
    99    56    55   ar
   100    56    57    1
   101    39    42    1
   102    39    38    1
   103    77    76    2
   104    26    24   ar
   105    26    28   ar
   106    29    28    1
   107    75    76    1
   108    75    74    1
   109    76    83   am
   110     5     6    1
   111    24    23   ar
   112    28    27   ar
   113   123   121    1
   114     6     7    1
   115     6     9    1
   116    14    15    1
   117    14     7   am
   118   101    99    1
   119    83    84    1
   120    89    91   ar
   121    89    88   ar
   122    15    16    1
   123    37    35    1
   124     7     8    2
   125    84    87    1
   126    84    85    1
   127    27    25   ar
   128    23    25   ar
   129    23    22    1
   130    91    93   ar
   131   121   120    1
   132    99    98    1
   133    36    35    1
   134    87    88    1
   135    35    34    1
   136    18    16   am
   137    18    19    1
   138    86    85    2
   139    10     9    1
   140    10    11    1
   141    22    19    1
   142    88    90   ar
   143    16    17    2
   144   100    98    1
   145    93    92   ar
   146    19    20    1
   147    98    95    1
   148   120   122    1
   149   120   117    1
   150   113   115   ar
   151   113   111   ar
   152    21    20    2
   153    12    11    2
   154    11    13   am
   155    34    31    1
   156    33    32    2
   157    90    92   ar
   158    32    31    1
   159   115   114   ar
   160    95    94    1
   161    95    96    1
   162   110   111   ar
   163   110   108   ar
   164   111   109   ar
   165    31    30    1
   166   118   117    1
   167   118   119    2
   168   117   116    1
   169   114   112   ar
   170   108   107   ar
   171    96    97    2
   172   109   112   ar
   173   109   107   ar
   174   107   106    1
   175   106   103    1
   176   105   104    2
   177   103   102    1
   178   103   104    1
