@<TRIPOS>MOLECULE
tmp/2zjkC00.pdb
 129 123 0 0 0
SMALL
GASTEIGER

@<TRIPOS>ATOM
      1  N         13.6730   60.4270   48.2140 N.3    16  GLY16      -0.1210
      2  CA        14.6010   61.2990   47.5020 C.3    16  GLY16       0.1956
      3  C         16.0470   61.2230   47.9600 C.2    16  GLY16       0.2612
      4  O         16.8320   62.1330   47.6890 O.2    16  GLY16      -0.2717
      5  N         16.4010   60.1440   48.6550 N.am   17  GLN17      -0.1965
      6  CA        17.7810   59.9210   49.0940 C.3    17  GLN17       0.1733
      7  C         18.3580   58.6030   48.5670 C.2    17  GLN17       0.2616
      8  O         19.3950   58.1290   49.0430 O.2    17  GLN17      -0.2715
      9  CB        17.8880   60.0010   50.6200 C.3    17  GLN17       0.0408
     10  CG        17.9820   61.4270   51.1530 C.3    17  GLN17       0.0908
     11  CD        18.0680   61.5000   52.6720 C.2    17  GLN17       0.2608
     12  OE1       18.5050   60.5580   53.3360 O.2    17  GLN17      -0.2717
     13  NE2       17.6540   62.6320   53.2270 N.am   17  GLN17      -0.0878
     14  N         17.6780   58.0210   47.5800 N.am   18  GLY18      -0.1955
     15  CA        18.1440   56.8030   46.9220 C.3    18  GLY18       0.1869
     16  C         17.8080   55.5160   47.6520 C.2    18  GLY18       0.2309
     17  O         17.5220   55.5200   48.8530 O.2    18  GLY18      -0.2863
     18  N         24.0830   52.0060   47.7410 N.3    35  LEU35      -0.1245
     19  CA        23.0450   52.5650   46.8780 C.3    35  LEU35       0.1561
     20  C         23.0280   51.8940   45.5020 C.2    35  LEU35       0.2260
     21  O         24.0750   51.6710   44.8910 O.2    35  LEU35      -0.2867
     22  CB        23.2090   54.0850   46.7470 C.3    35  LEU35       0.0270
     23  CG        22.0800   54.8880   46.0840 C.3    35  LEU35       0.0019
     24  CD1       21.8820   56.2170   46.7710 C.3    35  LEU35       0.0001
     25  CD2       22.3260   55.0930   44.5960 C.3    35  LEU35       0.0001
     26  N         22.4070   52.0190   41.7190 N.3    37  ASP37      -0.1239
     27  CA        22.4230   53.0470   40.6760 C.3    37  ASP37       0.1674
     28  C         22.6140   52.4500   39.2750 C.2    37  ASP37       0.2266
     29  O         23.6820   51.9200   38.9540 O.2    37  ASP37      -0.2867
     30  CB        23.5080   54.0900   40.9980 C.3    37  ASP37       0.1410
     31  CG        23.6060   55.1990   39.9510 C.2    37  ASP37       0.3668
     32  OD1       22.5770   55.5780   39.3530 O.co2  37  ASP37      -0.2456
     33  OD2       24.7260   55.7100   39.7410 O.co2  37  ASP37      -0.2456
     34  N         30.3650   63.8500   40.3180 N.3    76  TYR76      -0.1227
     35  CA        28.9200   63.6630   40.3810 C.3    76  TYR76       0.1736
     36  C         28.2420   65.0240   40.1970 C.2    76  TYR76       0.2595
     37  O         28.9190   66.0280   39.9780 O.2    76  TYR76      -0.2718
     38  CB        28.4970   62.9770   41.6920 C.3    76  TYR76       0.0548
     39  CG        27.0690   62.4700   41.6710 C.ar   76  TYR76      -0.0200
     40  CD1       26.6680   61.4930   40.7550 C.ar   76  TYR76      -0.0009
     41  CD2       26.1160   62.9770   42.5530 C.ar   76  TYR76      -0.0009
     42  CE1       25.3570   61.0330   40.7190 C.ar   76  TYR76       0.0417
     43  CE2       24.8000   62.5240   42.5250 C.ar   76  TYR76       0.0417
     44  CZ        24.4280   61.5510   41.6060 C.ar   76  TYR76       0.1957
     45  OH        23.1290   61.0960   41.5750 O.3    76  TYR76      -0.2866
     46  N         26.9130   65.0410   40.2660 N.am   77  CYS77      -0.1970
     47  CA        26.0970   66.2430   40.0650 C.3    77  CYS77       0.1712
     48  C         26.7270   67.5620   40.5310 C.2    77  CYS77       0.2296
     49  O         27.3230   68.2900   39.7300 O.2    77  CYS77      -0.2864
     50  CB        24.7230   66.0500   40.7160 C.3    77  CYS77       0.0983
     51  SG        23.7070   64.8110   39.8980 S.3    77  CYS77      -0.0798
     52  N         28.9090   64.7710   48.3370 N.3   113  PHE113     -0.1241
     53  CA        28.5320   63.4770   47.7730 C.3   113  PHE113      0.1605
     54  C         27.6450   62.6970   48.7400 C.2   113  PHE113      0.2264
     55  O         26.5110   62.3500   48.4020 O.2   113  PHE113     -0.2867
     56  CB        29.7770   62.6730   47.3790 C.3   113  PHE113      0.0534
     57  CG        29.4730   61.3360   46.7570 C.ar  113  PHE113     -0.0203
     58  CD1       28.9680   61.2510   45.4620 C.ar  113  PHE113     -0.0042
     59  CD2       29.7040   60.1580   47.4640 C.ar  113  PHE113     -0.0042
     60  CE1       28.6890   60.0140   44.8840 C.ar  113  PHE113     -0.0003
     61  CE2       29.4290   58.9160   46.8970 C.ar  113  PHE113     -0.0003
     62  CZ        28.9220   58.8440   45.6030 C.ar  113  PHE113     -0.0000
     63  N         25.0930   62.0180   51.6210 N.3   115  ILE115     -0.1245
     64  CA        23.9280   62.7510   52.0880 C.3   115  ILE115      0.1561
     65  C         23.7440   62.5880   53.5980 C.2   115  ILE115      0.2260
     66  O         23.6000   61.4740   54.1100 O.2   115  ILE115     -0.2867
     67  CB        22.6540   62.3510   51.2980 C.3   115  ILE115      0.0252
     68  CG1       22.8080   62.7510   49.8230 C.3   115  ILE115      0.0019
     69  CG2       21.4070   62.9930   51.9080 C.3   115  ILE115      0.0019
     70  CD1       21.8230   62.0910   48.8690 C.3   115  ILE115      0.0001
     71  N         23.2040   54.9530   53.6360 N.3   120  TRP120     -0.1241
     72  CA        24.1210   54.2430   52.7410 C.3   120  TRP120      0.1605
     73  C         25.5490   54.7970   52.7470 C.2   120  TRP120      0.2264
     74  O         25.7640   55.9980   52.9260 O.2   120  TRP120     -0.2867
     75  CB        23.5660   54.1840   51.3150 C.3   120  TRP120      0.0550
     76  CG        23.3280   55.5270   50.6640 C.ar  120  TRP120      0.0003
     77  CD1       22.1400   56.2000   50.5840 C.ar  120  TRP120      0.0946
     78  CD2       24.2950   56.3420   49.9840 C.ar  120  TRP120      0.0152
     79  NE1       22.3090   57.3810   49.9040 N.ar  120  TRP120     -0.2442
     80  CE2       23.6210   57.4950   49.5260 C.ar  120  TRP120      0.0810
     81  CE3       25.6650   56.2110   49.7220 C.ar  120  TRP120      0.0012
     82  CZ2       24.2690   58.5100   48.8210 C.ar  120  TRP120      0.0191
     83  CZ3       26.3070   57.2230   49.0220 C.ar  120  TRP120      0.0001
     84  CH2       25.6080   58.3560   48.5800 C.ar  120  TRP120      0.0015
     85  N         28.2020   53.1860   46.5770 N.3   123  ILE123     -0.1245
     86  CA        27.4170   53.1990   45.3450 C.3   123  ILE123      0.1561
     87  C         27.7450   51.9930   44.4460 C.2   123  ILE123      0.2260
     88  O         28.9130   51.6810   44.1990 O.2   123  ILE123     -0.2867
     89  CB        27.5630   54.5560   44.5890 C.3   123  ILE123      0.0252
     90  CG1       26.6370   54.6040   43.3670 C.3   123  ILE123      0.0019
     91  CG2       29.0270   54.8390   44.2250 C.3   123  ILE123      0.0019
     92  CD1       26.7890   55.8470   42.5060 C.3   123  ILE123      0.0001
     93  N         19.2500   55.7050   40.1540 N.3   223  GLY223     -0.1210
     94  CA        19.9550   56.6520   41.0170 C.3   223  GLY223      0.1956
     95  C         19.2910   58.0150   41.0900 C.2   223  GLY223      0.2613
     96  O         19.2950   58.6550   42.1420 O.2   223  GLY223     -0.2717
     97  N         18.7160   58.4520   39.9710 N.am  224  THR224     -0.1938
     98  CA        18.0310   59.7450   39.8860 C.3   224  THR224      0.2028
     99  C         16.6660   59.7220   40.5880 C.2   224  THR224      0.2643
    100  O         15.8950   58.7710   40.4380 O.2   224  THR224     -0.2714
    101  CB        17.8700   60.1910   38.4180 C.3   224  THR224      0.1808
    102  OG1       19.1510   60.1800   37.7760 O.3   224  THR224     -0.2208
    103  CG2       17.2780   61.5960   38.3240 C.3   224  THR224      0.0379
    104  N         16.3860   60.7790   41.3500 N.am  225  THR225     -0.1936
    105  CA        15.1440   60.9010   42.1110 C.3   225  THR225      0.2028
    106  C         13.9670   61.3430   41.2330 C.2   225  THR225      0.2642
    107  O         12.8830   60.7570   41.2940 O.2   225  THR225     -0.2714
    108  CB        15.3210   61.8680   43.3130 C.3   225  THR225      0.1808
    109  OG1       16.2190   61.2880   44.2660 O.3   225  THR225     -0.2208
    110  CG2       13.9910   62.1520   44.0020 C.3   225  THR225      0.0379
    111  N         14.1910   62.3710   40.4210 N.am  226  ASN226     -0.1971
    112  CA        13.1300   62.9730   39.6170 C.3   226  ASN226      0.1688
    113  C         12.9850   62.3720   38.2200 C.2   226  ASN226      0.2292
    114  O         13.8400   61.6060   37.7680 O.2   226  ASN226     -0.2864
    115  CB        13.3530   64.4880   39.5080 C.3   226  ASN226      0.1181
    116  CG        13.0070   65.2340   40.7930 C.2   226  ASN226      0.2629
    117  OD1       12.5760   64.6410   41.7840 O.2   226  ASN226     -0.2716
    118  ND2       13.1930   66.5480   40.7750 N.am  226  ASN226     -0.0877
    119  N         13.3540   63.5710   34.6580 N.3   228  ARG228     -0.1245
    120  CA        14.0410   64.6970   34.0370 C.3   228  ARG228      0.1563
    121  C         13.8150   64.7140   32.5320 C.2   228  ARG228      0.2260
    122  O         14.0130   63.7050   31.8550 O.2   228  ARG228     -0.2867
    123  CB        15.5370   64.6650   34.3580 C.3   228  ARG228      0.0307
    124  CG        15.8590   64.6580   35.8460 C.3   228  ARG228      0.0489
    125  CD        17.3530   64.7650   36.0880 C.3   228  ARG228      0.2205
    126  NE        17.8650   66.0920   35.7500 N.pl3 228  ARG228     -0.0865
    127  CZ        19.1540   66.3980   35.6270 C.cat 228  ARG228      0.5346
    128  NH1       20.0900   65.4730   35.8080 N.pl3 228  ARG228      0.1354
    129  NH2       19.5070   67.6370   35.3120 N.pl3 228  ARG228      0.1354
@<TRIPOS>BOND
     1   122   121    2
     2   121   120    1
     3   120   123    1
     4   120   119    1
     5   123   124    1
     6   129   127    1
     7   127   126    2
     8   127   128    1
     9   126   125    1
    10   124   125    1
    11   114   113    2
    12   102   101    1
    13   113   112    1
    14   103   101    1
    15   101    98    1
    16    29    28    2
    17    28    27    1
    18    32    31   ar
    19   115   112    1
    20   115   116    1
    21   112   111    1
    22    49    48    2
    23    33    31   ar
    24    98    97    1
    25    98    99    1
    26    51    50    1
    27    31    30    1
    28    97    95   am
    29    37    36    2
    30    47    46    1
    31    47    48    1
    32    47    50    1
    33    93    94    1
    34    36    46   am
    35    36    35    1
    36    34    35    1
    37    35    38    1
    38   111   106   am
    39   100    99    2
    40    99   104   am
    41    27    30    1
    42    27    26    1
    43    42    40   ar
    44    42    44   ar
    45    40    39   ar
    46   118   116   am
    47   116   117    2
    48    94    95    1
    49    95    96    2
    50   106   107    2
    51   106   105    1
    52   104   105    1
    53    45    44    1
    54    44    43   ar
    55    39    38    1
    56    39    41   ar
    57   105   108    1
    58    92    90    1
    59    43    41   ar
    60   108   110    1
    61   108   109    1
    62    90    89    1
    63    88    87    2
    64    91    89    1
    65    87    86    1
    66    89    86    1
    67    25    23    1
    68    60    58   ar
    69    60    62   ar
    70    21    20    2
    71    86    85    1
    72    58    57   ar
    73    20    19    1
    74    62    61   ar
    75    23    22    1
    76    23    24    1
    77    22    19    1
    78    57    56    1
    79    57    59   ar
    80    19    18    1
    81    61    59   ar
    82    15    14    1
    83    15    16    1
    84    56    53    1
    85     2     3    1
    86     2     1    1
    87    14     7   am
    88    16    17    2
    89     4     3    2
    90    53    52    1
    91    53    54    1
    92     3     5   am
    93    55    54    2
    94     7     8    2
    95     7     6    1
    96    84    82   ar
    97    84    83   ar
    98     5     6    1
    99    82    80   ar
   100    70    68    1
   101    83    81   ar
   102     6     9    1
   103    80    79   ar
   104    80    78   ar
   105    81    78   ar
   106    68    67    1
   107    79    77   ar
   108    78    76   ar
   109    77    76   ar
   110     9    10    1
   111    76    75    1
   112    10    11    1
   113    67    69    1
   114    67    64    1
   115    75    72    1
   116    63    64    1
   117    64    65    1
   118    11    13   am
   119    11    12    2
   120    72    73    1
   121    72    71    1
   122    73    74    2
   123    65    66    2
