@<TRIPOS>MOLECULE
tmp/2zjlA00.pdb
 190 178 0 0 0
SMALL
GASTEIGER

@<TRIPOS>ATOM
      1  N         75.5850   44.5640   28.4750 N.3    15  GLY15      -0.1210
      2  CA        75.1730   44.3620   27.0860 C.3    15  GLY15       0.1956
      3  C         76.2460   43.7810   26.1810 C.2    15  GLY15       0.2612
      4  O         76.0040   43.5590   24.9920 O.2    15  GLY15      -0.2717
      5  N         77.4280   43.5270   26.7420 N.am   16  GLN16      -0.1965
      6  CA        78.5820   43.0620   25.9630 C.3    16  GLN16       0.1733
      7  C         79.0810   41.6680   26.3660 C.2    16  GLN16       0.2616
      8  O         80.0850   41.1850   25.8360 O.2    16  GLN16      -0.2715
      9  CB        79.7310   44.0690   26.0630 C.3    16  GLN16       0.0408
     10  CG        79.4700   45.4030   25.3810 C.3    16  GLN16       0.0908
     11  CD        80.6460   46.3610   25.4980 C.2    16  GLN16       0.2608
     12  OE1       81.8070   45.9480   25.4900 O.2    16  GLN16      -0.2717
     13  NE2       80.3470   47.6510   25.6080 N.am   16  GLN16      -0.0878
     14  N         78.3810   41.0300   27.3000 N.am   17  GLY17      -0.1955
     15  CA        78.7580   39.7000   27.7730 C.3    17  GLY17       0.1869
     16  C         79.8430   39.7270   28.8320 C.2    17  GLY17       0.2309
     17  O         80.3600   40.7910   29.1830 O.2    17  GLY17      -0.2863
     18  N         85.6710   36.2550   26.0960 N.3    34  LEU34      -0.1231
     19  CA        84.2210   36.1340   26.2730 C.3    34  LEU34       0.1693
     20  C         83.7790   34.7110   26.6140 C.2    34  LEU34       0.2592
     21  O         84.2240   33.7480   25.9900 O.2    34  LEU34      -0.2718
     22  CB        83.4790   36.5910   25.0120 C.3    34  LEU34       0.0284
     23  CG        83.6070   38.0320   24.5120 C.3    34  LEU34       0.0019
     24  CD1       83.0640   38.1180   23.0950 C.3    34  LEU34       0.0001
     25  CD2       82.8830   39.0130   25.4240 C.3    34  LEU34       0.0001
     26  N         82.8990   34.5930   27.6050 N.am   35  VAL35      -0.1966
     27  CA        82.3600   33.2970   28.0260 C.3    35  VAL35       0.1727
     28  C         80.9830   33.1130   27.3800 C.2    35  VAL35       0.2616
     29  O         80.0270   33.8180   27.7220 O.2    35  VAL35      -0.2715
     30  CB        82.2930   33.1860   29.5770 C.3    35  VAL35       0.0290
     31  CG1       81.5330   31.9500   30.0100 C.3    35  VAL35       0.0023
     32  CG2       83.6960   33.1720   30.1750 C.3    35  VAL35       0.0023
     33  N         80.8940   32.1720   26.4420 N.am   36  ASP36      -0.1971
     34  CA        79.7000   32.0240   25.6100 C.3    36  ASP36       0.1709
     35  C         79.1720   30.5880   25.5750 C.2    36  ASP36       0.2293
     36  O         79.7540   29.7150   24.9240 O.2    36  ASP36      -0.2864
     37  CB        80.0050   32.5270   24.1890 C.3    36  ASP36       0.1436
     38  CG        78.7780   32.5650   23.2900 C.2    36  ASP36       0.3671
     39  OD1       77.6370   32.5490   23.7970 O.co2  36  ASP36      -0.2456
     40  OD2       78.9660   32.6230   22.0570 O.co2  36  ASP36      -0.2456
     41  N         76.5040   29.7740   24.1270 N.3    38  GLY38      -0.1210
     42  CA        75.7240   29.6770   22.8910 C.3    38  GLY38       0.1956
     43  C         76.5180   29.3200   21.6420 C.2    38  GLY38       0.2612
     44  O         75.9480   29.1880   20.5590 O.2    38  GLY38      -0.2717
     45  N         77.8310   29.1680   21.7920 N.am   39  SER39      -0.1952
     46  CA        78.7160   28.7990   20.6880 C.3    39  SER39       0.1924
     47  C         79.7630   27.8120   21.1900 C.2    39  SER39       0.2314
     48  O         79.8310   27.5490   22.3920 O.2    39  SER39      -0.2863
     49  CB        79.3790   30.0410   20.0800 C.3    39  SER39       0.2116
     50  OG        80.2350   30.6900   21.0100 O.3    39  SER39      -0.2180
     51  N         77.7550   35.4850   12.1040 N.3    75  TYR75      -0.1241
     52  CA        76.6900   35.5820   13.1030 C.3    75  TYR75       0.1605
     53  C         75.4640   36.2610   12.5070 C.2    75  TYR75       0.2264
     54  O         75.5840   37.1360   11.6480 O.2    75  TYR75      -0.2867
     55  CB        77.1540   36.3480   14.3470 C.3    75  TYR75       0.0534
     56  CG        78.3360   35.7420   15.0760 C.ar   75  TYR75      -0.0201
     57  CD1       78.2670   34.4610   15.6270 C.ar   75  TYR75      -0.0009
     58  CD2       79.5180   36.4620   15.2380 C.ar   75  TYR75      -0.0009
     59  CE1       79.3530   33.9060   16.3020 C.ar   75  TYR75       0.0417
     60  CE2       80.6060   35.9180   15.9140 C.ar   75  TYR75       0.0417
     61  CZ        80.5150   34.6420   16.4430 C.ar   75  TYR75       0.1957
     62  OH        81.5890   34.1010   17.1100 O.3    75  TYR75      -0.2866
     63  N         82.3010   43.5350   12.3930 N.3   108  LYS108     -0.1231
     64  CA        81.3190   43.7050   13.4760 C.3   108  LYS108      0.1693
     65  C         81.4260   42.6690   14.6080 C.2   108  LYS108      0.2592
     66  O         80.4300   42.3440   15.2540 O.2   108  LYS108     -0.2718
     67  CB        79.8880   43.7690   12.9190 C.3   108  LYS108      0.0285
     68  CG        79.5420   45.0900   12.2340 C.3   108  LYS108      0.0035
     69  CD        78.1470   45.0690   11.6080 C.3   108  LYS108      0.0206
     70  CE        78.1450   44.4120   10.2270 C.3   108  LYS108      0.1093
     71  NZ        78.8170   45.2490    9.1940 N.3   108  LYS108     -0.1314
     72  N         82.6350   42.1590   14.8390 N.am  109  PHE109     -0.1976
     73  CA        82.8810   41.1950   15.9130 C.3   109  PHE109      0.1639
     74  C         83.4880   41.8840   17.1330 C.2   109  PHE109      0.2290
     75  O         82.8290   42.0020   18.1650 O.2   109  PHE109     -0.2864
     76  CB        83.7550   40.0300   15.4250 C.3   109  PHE109      0.0560
     77  CG        84.1070   39.0350   16.5020 C.ar  109  PHE109     -0.0200
     78  CD1       83.1300   38.2240   17.0710 C.ar  109  PHE109     -0.0042
     79  CD2       85.4180   38.9030   16.9400 C.ar  109  PHE109     -0.0042
     80  CE1       83.4520   37.3050   18.0670 C.ar  109  PHE109     -0.0003
     81  CE2       85.7480   37.9820   17.9310 C.ar  109  PHE109     -0.0003
     82  CZ        84.7630   37.1830   18.4950 C.ar  109  PHE109     -0.0000
     83  N         84.5310   44.8830   19.5080 N.3   111  ILE111     -0.1245
     84  CA        83.8260   46.1250   19.8220 C.3   111  ILE111      0.1561
     85  C         84.8250   47.2250   20.1590 C.2   111  ILE111      0.2260
     86  O         85.7010   47.0380   21.0090 O.2   111  ILE111     -0.2867
     87  CB        82.8170   45.9530   20.9920 C.3   111  ILE111      0.0252
     88  CG1       81.7480   44.9140   20.6420 C.3   111  ILE111      0.0019
     89  CG2       82.1570   47.2920   21.3450 C.3   111  ILE111      0.0019
     90  CD1       80.7900   44.5920   21.7900 C.3   111  ILE111      0.0001
     91  N         88.0280   42.9250   25.7270 N.3   116  TRP116     -0.1241
     92  CA        88.1810   41.5020   25.4180 C.3   116  TRP116      0.1605
     93  C         88.7540   41.2850   24.0150 C.2   116  TRP116      0.2264
     94  O         88.5880   42.1280   23.1290 O.2   116  TRP116     -0.2867
     95  CB        86.8570   40.7490   25.6090 C.3   116  TRP116      0.0550
     96  CG        85.7090   41.3230   24.8320 C.ar  116  TRP116      0.0003
     97  CD1       84.7830   42.2220   25.2790 C.ar  116  TRP116      0.0946
     98  CD2       85.3700   41.0410   23.4700 C.ar  116  TRP116      0.0152
     99  NE1       83.8830   42.5150   24.2800 N.ar  116  TRP116     -0.2442
    100  CE2       84.2220   41.8040   23.1580 C.ar  116  TRP116      0.0810
    101  CE3       85.9280   40.2190   22.4780 C.ar  116  TRP116      0.0012
    102  CZ2       83.6190   41.7690   21.8980 C.ar  116  TRP116      0.0191
    103  CZ3       85.3260   40.1840   21.2270 C.ar  116  TRP116      0.0001
    104  CH2       84.1830   40.9530   20.9500 C.ar  116  TRP116      0.0015
    105  N         86.8250   34.7810   22.1400 N.3   119  ILE119     -0.1245
    106  CA        85.5920   34.1260   22.5510 C.3   119  ILE119      0.1561
    107  C         85.8390   32.6590   22.9090 C.2   119  ILE119      0.2260
    108  O         86.5730   31.9510   22.2120 O.2   119  ILE119     -0.2867
    109  CB        84.4800   34.2810   21.4740 C.3   119  ILE119      0.0252
    110  CG1       83.1370   33.7510   21.9940 C.3   119  ILE119      0.0019
    111  CG2       84.9000   33.6460   20.1330 C.3   119  ILE119      0.0019
    112  CD1       81.9610   34.0770   21.1120 C.3   119  ILE119      0.0001
    113  N         73.4550   23.0920   21.3040 N.3   186  TYR186     -0.1241
    114  CA        73.3130   24.2080   22.2310 C.3   186  TYR186      0.1605
    115  C         72.9730   23.6080   23.6020 C.2   186  TYR186      0.2264
    116  O         72.7240   22.4040   23.7220 O.2   186  TYR186     -0.2867
    117  CB        72.1660   25.1220   21.8060 C.3   186  TYR186      0.0534
    118  CG        72.3510   25.8550   20.4970 C.ar  186  TYR186     -0.0201
    119  CD1       72.9580   27.1120   20.4580 C.ar  186  TYR186     -0.0009
    120  CD2       71.8840   25.3100   19.2990 C.ar  186  TYR186     -0.0009
    121  CE1       73.1150   27.7970   19.2560 C.ar  186  TYR186      0.0417
    122  CE2       72.0340   25.9870   18.0920 C.ar  186  TYR186      0.0417
    123  CZ        72.6500   27.2280   18.0790 C.ar  186  TYR186      0.1957
    124  OH        72.8000   27.8970   16.8880 O.3   186  TYR186     -0.2866
    125  N         63.6870   26.0800   19.1550 N.3   212  LYS212     -0.1245
    126  CA        64.4790   25.6590   20.3190 C.3   212  LYS212      0.1561
    127  C         64.3460   26.5930   21.5210 C.2   212  LYS212      0.2260
    128  O         63.8520   27.7170   21.4030 O.2   212  LYS212     -0.2867
    129  CB        65.9610   25.4910   19.9470 C.3   212  LYS212      0.0271
    130  CG        66.6900   26.7940   19.6360 C.3   212  LYS212      0.0035
    131  CD        68.1350   26.5340   19.2320 C.3   212  LYS212      0.0206
    132  CE        68.7880   27.7850   18.6660 C.3   212  LYS212      0.1093
    133  NZ        68.1890   28.1900   17.3610 N.3   212  LYS212     -0.1314
    134  N         67.0770   27.7350   24.7290 N.3   214  ILE214     -0.1245
    135  CA        68.4780   27.5850   25.1180 C.3   214  ILE214      0.1561
    136  C         68.8840   28.4780   26.2820 C.2   214  ILE214      0.2260
    137  O         68.2970   29.5350   26.5040 O.2   214  ILE214     -0.2867
    138  CB        69.4570   27.8270   23.9250 C.3   214  ILE214      0.0252
    139  CG1       69.3260   29.2580   23.3850 C.3   214  ILE214      0.0019
    140  CG2       69.2420   26.7950   22.8260 C.3   214  ILE214      0.0019
    141  CD1       70.5250   29.7290   22.5750 C.3   214  ILE214      0.0001
    142  N         71.8930   30.7310   27.2850 N.3   216  ASP216     -0.1239
    143  CA        72.9050   31.3950   26.4610 C.3   216  ASP216      0.1674
    144  C         73.5290   32.6010   27.1540 C.2   216  ASP216      0.2266
    145  O         72.9090   33.6620   27.2490 O.2   216  ASP216     -0.2867
    146  CB        72.2850   31.8230   25.1240 C.3   216  ASP216      0.1410
    147  CG        73.3270   32.2310   24.0850 C.2   216  ASP216      0.3668
    148  OD1       74.5300   32.3220   24.4190 O.co2 216  ASP216     -0.2456
    149  OD2       72.9320   32.4640   22.9220 O.co2 216  ASP216     -0.2456
    150  N         76.0050   34.2030   25.9840 N.3   218  GLY218     -0.1210
    151  CA        76.4030   35.1140   24.9050 C.3   218  GLY218      0.1956
    152  C         75.3190   36.0730   24.4400 C.2   218  GLY218      0.2612
    153  O         75.5990   37.0350   23.7230 O.2   218  GLY218     -0.2717
    154  N         74.0790   35.8060   24.8440 N.am  219  THR219     -0.1952
    155  CA        72.9490   36.6850   24.5440 C.3   219  THR219      0.1897
    156  C         72.6210   37.5310   25.7770 C.2   219  THR219      0.2313
    157  O         72.5980   37.0200   26.8950 O.2   219  THR219     -0.2863
    158  CB        71.7200   35.8690   24.0710 C.3   219  THR219      0.1794
    159  OG1       72.0730   35.1090   22.9080 O.3   219  THR219     -0.2208
    160  CG2       70.5530   36.7730   23.7260 C.3   219  THR219      0.0378
    161  N         65.1660   36.3760   24.8970 N.3   223  ARG223     -0.1245
    162  CA        64.6400   36.4480   23.5400 C.3   223  ARG223      0.1563
    163  C         63.5570   35.4010   23.3010 C.2   223  ARG223      0.2260
    164  O         63.8460   34.2140   23.1420 O.2   223  ARG223     -0.2867
    165  CB        65.7700   36.3380   22.5080 C.3   223  ARG223      0.0307
    166  CG        66.7550   37.5070   22.5510 C.3   223  ARG223      0.0489
    167  CD        67.7740   37.4370   21.4250 C.3   223  ARG223      0.2205
    168  NE        67.2030   37.7870   20.1250 N.pl3 223  ARG223     -0.0865
    169  CZ        67.8480   37.6860   18.9660 C.cat 223  ARG223      0.5346
    170  NH1       69.0990   37.2430   18.9260 N.pl3 223  ARG223      0.1354
    171  NH2       67.2380   38.0290   17.8400 N.pl3 223  ARG223      0.1354
    172  N         62.4850   36.9480   18.7400 N.3   286  SER286     -0.1217
    173  CA        63.4650   36.0790   18.0920 C.3   286  SER286      0.1889
    174  C         62.8050   35.1830   17.0490 C.2   286  SER286      0.2288
    175  O         61.5980   34.9380   17.1020 O.2   286  SER286     -0.2866
    176  CB        64.1910   35.2220   19.1340 C.3   286  SER286      0.2089
    177  OG        64.9670   34.2070   18.5160 O.3   286  SER286     -0.2183
    178  N         64.8610   32.3500   16.0700 N.3   288  THR288     -0.1218
    179  CA        65.6210   31.1190   16.3000 C.3   288  THR288      0.1862
    180  C         65.1020   30.3360   17.5110 C.2   288  THR288      0.2287
    181  O         65.4720   29.1780   17.7100 O.2   288  THR288     -0.2866
    182  CB        67.1420   31.3870   16.4550 C.3   288  THR288      0.1770
    183  OG1       67.3520   32.5300   17.2940 O.3   288  THR288     -0.2211
    184  CG2       67.7860   31.6320   15.0980 C.3   288  THR288      0.0375
    185  N         65.7650   32.3250   23.9280 N.3   291  CYS291     -0.1235
    186  CA        67.1430   32.4680   24.3690 C.3   291  CYS291      0.1677
    187  C         67.1840   33.0660   25.7620 C.2   291  CYS291      0.2270
    188  O         66.9310   34.2580   25.9540 O.2   291  CYS291     -0.2867
    189  CB        67.9450   33.3130   23.3770 C.3   291  CYS291      0.0956
    190  SG        67.9850   32.6110   21.7170 S.3   291  CYS291     -0.0801
@<TRIPOS>BOND
     1    71    70    1
     2    70    69    1
     3    69    68    1
     4    54    53    2
     5    51    52    1
     6    68    67    1
     7    63    64    1
     8    53    52    1
     9    67    64    1
    10    52    55    1
    11    64    65    1
    12    55    56    1
    13    65    72   am
    14    65    66    2
    15    72    73    1
    16    56    58   ar
    17    56    57   ar
    18   184   182    1
    19    58    60   ar
    20    76    73    1
    21    76    77    1
    22    57    59   ar
    23    73    74    1
    24    60    61   ar
    25   178   179    1
    26   179   182    1
    27   179   180    1
    28    59    61   ar
    29    61    62    1
    30   182   183    1
    31    77    79   ar
    32    77    78   ar
    33   124   123    1
    34    79    81   ar
    35   174   175    2
    36   174   173    1
    37    78    80   ar
    38    74    75    2
    39   133   132    1
    40   180   181    2
    41   171   169    1
    42    81    82   ar
    43    80    82   ar
    44   123   122   ar
    45   123   121   ar
    46   122   120   ar
    47   173   172    1
    48   173   176    1
    49   177   176    1
    50   132   131    1
    51   170   169    1
    52   169   168    2
    53   125   126    1
    54   131   130    1
    55   121   119   ar
    56   120   118   ar
    57    83    84    1
    58   130   129    1
    59    84    85    1
    60    84    87    1
    61   129   126    1
    62    49    46    1
    63    49    50    1
    64   168   167    1
    65   111   109    1
    66    85    86    2
    67   126   127    1
    68   119   118   ar
    69   118   117    1
    70    44    43    2
    71    88    87    1
    72    88    90    1
    73    46    47    1
    74    46    45    1
    75   104   103   ar
    76   104   102   ar
    77    87    89    1
    78   112   110    1
    79    47    48    2
    80   103   101   ar
    81   113   114    1
    82   128   127    2
    83   167   166    1
    84   109   110    1
    85   109   106    1
    86    43    45   am
    87    43    42    1
    88   190   189    1
    89   117   114    1
    90   102   100   ar
    91    40    38   ar
    92   105   106    1
    93   108   107    2
    94   114   115    1
    95   101    98   ar
    96   165   166    1
    97   165   162    1
    98   106   107    1
    99   141   139    1
   100   140   138    1
   101    42    41    1
   102   159   158    1
   103   149   147   ar
   104    24    23    1
   105    94    93    2
   106   164   163    2
   107   100    98   ar
   108   100    99   ar
   109    38    39   ar
   110    38    37    1
   111   163   162    1
   112   189   186    1
   113   139   138    1
   114    98    96   ar
   115   162   161    1
   116   115   116    2
   117   153   152    2
   118   160   158    1
   119   138   135    1
   120   185   186    1
   121    93    92    1
   122   158   155    1
   123   147   148   ar
   124   147   146    1
   125    37    34    1
   126    99    97   ar
   127   186   187    1
   128   152   154   am
   129   152   151    1
   130    23    22    1
   131    23    25    1
   132   155   154    1
   133   155   156    1
   134   134   135    1
   135    96    97   ar
   136    96    95    1
   137   151   150    1
   138    36    35    2
   139     4     3    2
   140    22    19    1
   141   135   136    1
   142   146   143    1
   143    10    11    1
   144    10     9    1
   145    92    95    1
   146    92    91    1
   147    12    11    2
   148    11    13   am
   149    35    34    1
   150    34    33    1
   151   187   188    2
   152   156   157    2
   153     8     7    2
   154     6     9    1
   155     6     7    1
   156     6     5    1
   157    21    20    2
   158    18    19    1
   159     3     5   am
   160     3     2    1
   161    19    20    1
   162   136   137    2
   163     7    14   am
   164    33    28   am
   165   143   144    1
   166   143   142    1
   167    20    26   am
   168     2     1    1
   169   144   145    2
   170    14    15    1
   171    28    29    2
   172    28    27    1
   173    26    27    1
   174    15    16    1
   175    27    30    1
   176    16    17    2
   177    30    31    1
   178    30    32    1
