@<TRIPOS>MOLECULE
tmp/2zjoA00.pdb
 101 98 0 0 0
SMALL
GASTEIGER

@<TRIPOS>ATOM
      1  N         24.4450   21.3160   50.3370 N.3    20  THR20      -0.1203
      2  CA        24.1970   20.1670   49.4770 C.3    20  THR20       0.1994
      3  C         23.1390   20.5680   48.4610 C.2    20  THR20       0.2618
      4  O         22.0200   20.9250   48.8250 O.2    20  THR20      -0.2717
      5  CB        23.6550   18.9570   50.2780 C.3    20  THR20       0.1784
      6  OG1       24.6560   18.4920   51.1900 O.3    20  THR20      -0.2211
      7  CG2       23.2680   17.8310   49.3410 C.3    20  THR20       0.0376
      8  N         23.4940   20.5040   47.1850 N.am   21  GLY21      -0.1956
      9  CA        22.5480   20.8740   46.1540 C.3    21  GLY21       0.1869
     10  C         22.9820   22.0970   45.3750 C.2    21  GLY21       0.2309
     11  O         22.5010   22.3210   44.2690 O.2    21  GLY21      -0.2863
     12  N         25.4950   22.3860   43.9130 N.3    23  GLY23      -0.1210
     13  CA        26.3700   21.8780   42.8660 C.3    23  GLY23       0.1956
     14  C         27.8580   21.7900   43.1970 C.2    23  GLY23       0.2612
     15  O         28.7040   21.7020   42.2970 O.2    23  GLY23      -0.2717
     16  N         28.1950   21.7930   44.4820 N.am   24  LYS24      -0.1965
     17  CA        29.5970   21.7520   44.8760 C.3    24  LYS24       0.1728
     18  C         30.2910   20.4610   44.5060 C.2    24  LYS24       0.2617
     19  O         31.5100   20.4400   44.3550 O.2    24  LYS24      -0.2715
     20  CB        29.7530   21.9820   46.3810 C.3    24  LYS24       0.0311
     21  CG        29.2190   20.8600   47.2490 C.3    24  LYS24       0.0038
     22  CD        29.6260   21.0490   48.6970 C.3    24  LYS24       0.0206
     23  CE        28.7370   20.2600   49.6410 C.3    24  LYS24       0.1093
     24  NZ        28.7720   18.8100   49.3610 N.3    24  LYS24      -0.1314
     25  N         29.5120   19.3970   44.3480 N.am   25  SER25      -0.1936
     26  CA        30.0570   18.0800   44.0290 C.3    25  SER25       0.2055
     27  C         29.8430   17.7030   42.5900 C.2    25  SER25       0.2643
     28  O         30.3260   16.6700   42.1460 O.2    25  SER25      -0.2714
     29  CB        29.3980   16.9960   44.8850 C.3    25  SER25       0.2130
     30  OG        29.2360   17.4060   46.2280 O.3    25  SER25      -0.2179
     31  N         29.1030   18.5270   41.8640 N.am   26  THR26      -0.1950
     32  CA        28.8030   18.2420   40.4780 C.3    26  THR26       0.1897
     33  C         29.2290   19.3750   39.5630 C.2    26  THR26       0.2313
     34  O         30.1780   19.2060   38.7940 O.2    26  THR26      -0.2863
     35  CB        27.3060   17.9920   40.3150 C.3    26  THR26       0.1794
     36  OG1       26.5730   19.1040   40.8540 O.3    26  THR26      -0.2208
     37  CG2       26.9090   16.7360   41.0400 C.3    26  THR26       0.0378
     38  N         31.5540    9.6770   51.2250 N.3    44  PRO44      -0.2102
     39  CA        31.3350    8.5580   52.1450 C.3    44  PRO44       0.1504
     40  C         30.2560    7.5690   51.6910 C.2    44  PRO44       0.2576
     41  O         30.3030    6.3850   52.0260 O.2    44  PRO44      -0.2718
     42  CB        30.9270    9.2500   53.4460 C.3    44  PRO44       0.0282
     43  CG        31.5420   10.6270   53.3360 C.3    44  PRO44       0.0208
     44  CD        31.3200   10.9680   51.9000 C.3    44  PRO44       0.0893
     45  N         29.2920    8.0590   50.9200 N.am   45  SER45      -0.1938
     46  CA        28.1640    7.2440   50.4820 C.3    45  SER45       0.2055
     47  C         28.1700    6.6650   49.0700 C.2    45  SER45       0.2643
     48  O         28.4310    7.3770   48.1100 O.2    45  SER45      -0.2714
     49  CB        26.8770    8.0590   50.6770 C.3    45  SER45       0.2130
     50  OG        25.8150    7.5580   49.8810 O.3    45  SER45      -0.2179
     51  N         27.8640    5.3730   48.9470 N.am   46  VAL46      -0.1963
     52  CA        27.7960    4.7430   47.6390 C.3    46  VAL46       0.1727
     53  C         26.6480    5.4390   46.9260 C.2    46  VAL46       0.2616
     54  O         26.7950    5.8970   45.7900 O.2    46  VAL46      -0.2715
     55  CB        27.4670    3.2050   47.7110 C.3    46  VAL46       0.0290
     56  CG1       27.0610    2.7160   46.3430 C.3    46  VAL46       0.0023
     57  CG2       28.6900    2.3840   48.1970 C.3    46  VAL46       0.0023
     58  N         25.5090    5.5440   47.6120 N.am   47  ALA47      -0.1963
     59  CA        24.3250    6.1830   47.0360 C.3    47  ALA47       0.1728
     60  C         24.5990    7.5610   46.4920 C.2    47  ALA47       0.2616
     61  O         24.2000    7.8620   45.3780 O.2    47  ALA47      -0.2715
     62  CB        23.2130    6.2670   48.0510 C.3    47  ALA47       0.0334
     63  N         25.2550    8.4030   47.2860 N.am   48  ALA48      -0.1977
     64  CA        25.5780    9.7590   46.8530 C.3    48  ALA48       0.1597
     65  C         26.4540    9.7290   45.5980 C.2    48  ALA48       0.2287
     66  O         26.2060   10.4450   44.6210 O.2    48  ALA48      -0.2864
     67  CB        26.2950   10.5300   47.9890 C.3    48  ALA48       0.0319
     68  N         24.3590    9.0820   42.9620 N.3    51  GLY51      -0.1210
     69  CA        23.5460   10.2720   42.7550 C.3    51  GLY51       0.1956
     70  C         24.2420   11.3360   41.9150 C.2    51  GLY51       0.2611
     71  O         23.6410   11.9190   41.0200 O.2    51  GLY51      -0.2717
     72  N         25.5170   11.6000   42.1760 N.am   52  PHE52      -0.1976
     73  CA        26.2280   12.6140   41.3930 C.3    52  PHE52       0.1639
     74  C         26.4190   12.1930   39.9360 C.2    52  PHE52       0.2290
     75  O         26.2760   13.0080   39.0220 O.2    52  PHE52      -0.2864
     76  CB        27.5960   12.9180   42.0060 C.3    52  PHE52       0.0560
     77  CG        27.5570   13.2040   43.4830 C.ar   52  PHE52      -0.0200
     78  CD1       26.6110   14.0780   44.0150 C.ar   52  PHE52      -0.0042
     79  CD2       28.4910   12.6230   44.3440 C.ar   52  PHE52      -0.0042
     80  CE1       26.5970   14.3670   45.3760 C.ar   52  PHE52      -0.0003
     81  CE2       28.4800   12.9130   45.7070 C.ar   52  PHE52      -0.0003
     82  CZ        27.5310   13.7870   46.2230 C.ar   52  PHE52      -0.0000
     83  N         23.1550   12.7300   38.0490 N.3    55  TYR55      -0.1241
     84  CA        22.9330   14.1410   37.8460 C.3    55  TYR55       0.1605
     85  C         23.7930   14.6840   36.7180 C.2    55  TYR55       0.2264
     86  O         23.3130   15.4010   35.8340 O.2    55  TYR55      -0.2867
     87  CB        23.2330   14.9050   39.1300 C.3    55  TYR55       0.0534
     88  CG        23.2500   16.4010   38.9320 C.ar   55  TYR55      -0.0201
     89  CD1       22.0690   17.1290   38.8900 C.ar   55  TYR55      -0.0009
     90  CD2       24.4500   17.0750   38.6960 C.ar   55  TYR55      -0.0009
     91  CE1       22.0780   18.4940   38.6080 C.ar   55  TYR55       0.0417
     92  CE2       24.4710   18.4300   38.4090 C.ar   55  TYR55       0.0417
     93  CZ        23.2760   19.1390   38.3620 C.ar   55  TYR55       0.1957
     94  OH        23.2840   20.4810   38.0350 O.3    55  TYR55      -0.2866
     95  N         16.1350   11.1470   58.1760 N.3   230  THR230     -0.1218
     96  CA        16.4350   12.5830   58.1120 C.3   230  THR230      0.1862
     97  C         15.6300   13.1900   56.9510 C.2   230  THR230      0.2287
     98  O         15.2740   14.3820   56.9610 O.2   230  THR230     -0.2866
     99  CB        17.9550   12.8370   57.8800 C.3   230  THR230      0.1770
    100  OG1       18.2230   14.2490   57.9070 O.3   230  THR230     -0.2211
    101  CG2       18.3930   12.2580   56.5390 C.3   230  THR230      0.0375
@<TRIPOS>BOND
     1    86    85    2
     2    85    84    1
     3    84    83    1
     4    84    87    1
     5    94    93    1
     6    93    92   ar
     7    93    91   ar
     8    92    90   ar
     9    91    89   ar
    10    90    88   ar
    11    34    33    2
    12    89    88   ar
    13    88    87    1
    14    75    74    2
    15    33    32    1
    16    74    73    1
    17    35    32    1
    18    35    36    1
    19    35    37    1
    20    32    31    1
    21    71    70    2
    22    73    76    1
    23    73    72    1
    24    31    27   am
    25    70    72   am
    26    70    69    1
    27    76    77    1
    28    28    27    2
    29    15    14    2
    30    27    26    1
    31    69    68    1
    32    13    14    1
    33    13    12    1
    34    14    16   am
    35    77    78   ar
    36    77    79   ar
    37    78    80   ar
    38    26    25    1
    39    26    29    1
    40    11    10    2
    41    79    81   ar
    42    25    18   am
    43    19    18    2
    44    16    17    1
    45    18    17    1
    46    66    65    2
    47    17    20    1
    48    29    30    1
    49    10     9    1
    50    80    82   ar
    51    61    60    2
    52    65    64    1
    53    81    82   ar
    54    54    53    2
    55     9     8    1
    56    56    55    1
    57    20    21    1
    58    60    59    1
    59    60    63   am
    60    64    63    1
    61    64    67    1
    62    53    58   am
    63    53    52    1
    64    59    58    1
    65    59    62    1
    66     8     3   am
    67    21    22    1
    68    52    55    1
    69    52    51    1
    70    55    57    1
    71    48    47    2
    72     3     4    2
    73     3     2    1
    74    22    23    1
    75    51    47   am
    76    47    46    1
    77     7     5    1
    78    24    23    1
    79     2     5    1
    80     2     1    1
    81    50    49    1
    82     5     6    1
    83    46    49    1
    84    46    45    1
    85    45    40   am
    86    38    44    1
    87    38    39    1
    88    40    41    2
    89    40    39    1
    90    44    43    1
    91    39    42    1
    92    43    42    1
    93   101    99    1
    94    97    98    2
    95    97    96    1
    96    99   100    1
    97    99    96    1
    98    96    95    1
