@<TRIPOS>MOLECULE
tmp/2zjwA00.pdb
 142 132 0 0 0
SMALL
GASTEIGER

@<TRIPOS>ATOM
      1  N         43.9930   -7.5190    5.3840 N.3    45  LEU45      -0.1231
      2  CA        42.6900   -7.6960    4.7520 C.3    45  LEU45       0.1693
      3  C         42.2750   -6.4310    4.0130 C.2    45  LEU45       0.2593
      4  O         42.4720   -5.3200    4.5070 O.2    45  LEU45      -0.2718
      5  CB        41.6330   -8.0660    5.8000 C.3    45  LEU45       0.0284
      6  CG        41.8490   -9.3900    6.5460 C.3    45  LEU45       0.0019
      7  CD1       40.8410   -9.5440    7.6740 C.3    45  LEU45       0.0001
      8  CD2       41.7400  -10.5400    5.5770 C.3    45  LEU45       0.0001
      9  N         41.7180   -6.6050    2.8180 N.am   46  GLY46      -0.1942
     10  CA        41.0280   -5.5160    2.1480 C.3    46  GLY46       0.1991
     11  C         41.9240   -4.3040    1.9910 C.2    46  GLY46       0.2218
     12  O         43.0650   -4.4220    1.5460 O.2    46  GLY46      -0.4293
     13  N         41.4070   -3.1350    2.3540 N.2    47  ARG47      -0.2327
     14  CA        42.1690   -1.8930    2.2730 C.3    47  ARG47       0.1837
     15  C         41.3490   -0.7440    2.8440 C.2    47  ARG47       0.2642
     16  O         40.4590   -0.2100    2.1780 O.2    47  ARG47      -0.2712
     17  CB        42.5650   -1.5860    0.8240 C.3    47  ARG47       0.0415
     18  CG        43.8150   -2.3240    0.3660 C.3    47  ARG47       0.0931
     19  CD        44.0510   -3.6170    1.1400 C.3    47  ARG47       0.3500
     20  NE        45.1750   -4.3990    0.6340 N.pl3  47  ARG47      -0.0453
     21  CZ        46.3460   -3.8740    0.2830 C.cat  47  ARG47       0.5378
     22  NH1       47.3200   -4.6550   -0.1660 N.pl3  47  ARG47       0.1355
     23  NH2       46.5440   -2.5640    0.3840 N.pl3  47  ARG47       0.1355
     24  N         41.6360   -0.3860    4.0910 N.am   48  GLY48      -0.1953
     25  CA        40.7500    0.4980    4.8220 C.3    48  GLY48       0.1869
     26  C         41.0850    1.9640    4.6210 C.2    48  GLY48       0.2309
     27  O         42.1900    2.3090    4.1920 O.2    48  GLY48      -0.2863
     28  N         42.3830    3.8480    8.2920 N.3    51  SER51      -0.1217
     29  CA        42.7250    2.7290    9.1660 C.3    51  SER51       0.1889
     30  C         42.9710    1.4570    8.3530 C.2    51  SER51       0.2288
     31  O         42.2990    1.2010    7.3560 O.2    51  SER51      -0.2866
     32  CB        41.6000    2.4710   10.1720 C.3    51  SER51       0.2089
     33  OG        41.3940    3.5860   11.0220 O.3    51  SER51      -0.2183
     34  N         43.3600   -2.8030    8.4370 N.3    53  VAL53      -0.1245
     35  CA        42.9750   -3.9840    9.1910 C.3    53  VAL53       0.1561
     36  C         43.7340   -5.2230    8.7560 C.2    53  VAL53       0.2260
     37  O         44.0500   -5.3920    7.5780 O.2    53  VAL53      -0.2867
     38  CB        41.4520   -4.2370    9.0730 C.3    53  VAL53       0.0252
     39  CG1       40.7000   -2.9240    9.2770 C.3    53  VAL53       0.0019
     40  CG2       41.1060   -4.8380    7.7310 C.3    53  VAL53       0.0019
     41  N         41.0430  -10.0510   14.3640 N.3    66  VAL66      -0.1245
     42  CA        41.2260   -9.0210   13.3480 C.3    66  VAL66       0.1561
     43  C         41.7060   -7.7410   14.0300 C.2    66  VAL66       0.2260
     44  O         41.0230   -7.1870   14.8930 O.2    66  VAL66      -0.2867
     45  CB        39.9240   -8.7590   12.5540 C.3    66  VAL66       0.0252
     46  CG1       40.1200   -7.6090   11.5750 C.3    66  VAL66       0.0019
     47  CG2       39.5210  -10.0210   11.7920 C.3    66  VAL66       0.0019
     48  N         42.7370   -3.8640   13.9540 N.3    68  LYS68      -0.1245
     49  CA        42.4640   -2.6380   13.2330 C.3    68  LYS68       0.1561
     50  C         43.3510   -1.5670   13.8320 C.2    68  LYS68       0.2260
     51  O         43.1750   -1.1750   14.9810 O.2    68  LYS68      -0.2867
     52  CB        40.9980   -2.2550   13.3860 C.3    68  LYS68       0.0271
     53  CG        40.6230   -0.9750   12.6910 C.3    68  LYS68       0.0035
     54  CD        39.2100   -0.5870   13.0460 C.3    68  LYS68       0.0206
     55  CE        38.8510    0.7450   12.4430 C.3    68  LYS68       0.1093
     56  NZ        37.5420    1.2070   12.9490 N.3    68  LYS68      -0.1314
     57  N         34.8400    5.7200   19.4550 N.3    81  GLU81      -0.1245
     58  CA        34.6410    4.3660   18.9500 C.3    81  GLU81       0.1567
     59  C         34.8400    3.3440   20.0620 C.2    81  GLU81       0.2260
     60  O         34.0290    2.4400   20.2380 O.2    81  GLU81      -0.2867
     61  CB        35.5950    4.0830   17.7820 C.3    81  GLU81       0.0388
     62  CG        35.4450    2.6840   17.1720 C.3    81  GLU81       0.1160
     63  CD        36.2140    2.5060   15.8660 C.2    81  GLU81       0.3649
     64  OE1       36.9550    3.4280   15.4550 O.co2  81  GLU81      -0.2457
     65  OE2       36.0730    1.4370   15.2400 O.co2  81  GLU81      -0.2457
     66  N         29.6170   -6.2230   16.7650 N.3    95  ILE95      -0.1245
     67  CA        30.9630   -6.7750   16.7320 C.3    95  ILE95       0.1561
     68  C         31.5400   -6.6540   18.1410 C.2    95  ILE95       0.2260
     69  O         31.3260   -5.6450   18.8200 O.2    95  ILE95      -0.2867
     70  CB        31.8830   -6.0390   15.7260 C.3    95  ILE95       0.0252
     71  CG1       33.1810   -6.8170   15.5330 C.3    95  ILE95       0.0019
     72  CG2       32.2230   -4.6360   16.2120 C.3    95  ILE95       0.0019
     73  CD1       32.9910   -8.1350   14.8100 C.3    95  ILE95       0.0001
     74  N         39.2380   -7.0090   17.2520 N.3   113  PHE113     -0.1227
     75  CA        37.8870   -7.5260   17.1270 C.3   113  PHE113      0.1736
     76  C         37.8530   -9.0360   16.9890 C.2   113  PHE113      0.2595
     77  O         38.8130   -9.6610   16.5380 O.2   113  PHE113     -0.2718
     78  CB        37.1980   -6.9210   15.9050 C.3   113  PHE113      0.0547
     79  CG        37.0340   -5.4340   15.9690 C.ar  113  PHE113     -0.0202
     80  CD1       36.0620   -4.8660   16.7850 C.ar  113  PHE113     -0.0042
     81  CD2       37.8290   -4.6000   15.1830 C.ar  113  PHE113     -0.0042
     82  CE1       35.8750   -3.4890   16.8210 C.ar  113  PHE113     -0.0003
     83  CE2       37.6560   -3.2150   15.2080 C.ar  113  PHE113     -0.0003
     84  CZ        36.6770   -2.6540   16.0270 C.ar  113  PHE113     -0.0000
     85  N         36.7270   -9.6120   17.3870 N.am  114  GLU114     -0.1979
     86  CA        36.5040  -11.0410   17.2710 C.3   114  GLU114      0.1602
     87  C         36.6570  -11.3530   15.7850 C.2   114  GLU114      0.2287
     88  O         36.3770  -10.5040   14.9370 O.2   114  GLU114     -0.2864
     89  CB        35.0720  -11.3560   17.6990 C.3   114  GLU114      0.0415
     90  CG        34.0160  -10.5650   16.9190 C.3   114  GLU114      0.1163
     91  CD        32.6040  -11.0580   17.1580 C.2   114  GLU114      0.3649
     92  OE1       32.3920  -12.2880   17.1720 O.co2 114  GLU114     -0.2457
     93  OE2       31.7000  -10.2190   17.3230 O.co2 114  GLU114     -0.2457
     94  N         35.6170  -12.7420   12.2770 N.3   116  VAL116     -0.1245
     95  CA        34.4350  -13.1190   11.5060 C.3   116  VAL116      0.1561
     96  C         34.9130  -13.5570   10.1230 C.2   116  VAL116      0.2260
     97  O         35.5270  -12.7790    9.3970 O.2   116  VAL116     -0.2867
     98  CB        33.4330  -11.9370   11.3260 C.3   116  VAL116      0.0252
     99  CG1       32.2090  -12.3960   10.5310 C.3   116  VAL116      0.0019
    100  CG2       33.0020  -11.3910   12.6760 C.3   116  VAL116      0.0019
    101  N         33.8760  -13.6950    7.1340 N.3   118  ASN118     -0.1240
    102  CA        32.8390  -13.2520    6.2120 C.3   118  ASN118      0.1653
    103  C         33.1260  -13.4460    4.7270 C.2   118  ASN118      0.2266
    104  O         34.2540  -13.2780    4.2700 O.2   118  ASN118     -0.2867
    105  CB        32.4550  -11.7930    6.5110 C.3   118  ASN118      0.1155
    106  CG        33.0290  -10.8090    5.5110 C.2   118  ASN118      0.2627
    107  OD1       32.2880  -10.1780    4.7520 O.2   118  ASN118     -0.2716
    108  ND2       34.3490  -10.6630    5.5100 N.am  118  ASN118     -0.0877
    109  N         29.1540   -3.0430    3.4280 N.3   160  HIS160     -0.1241
    110  CA        30.5540   -3.1580    3.8150 C.3   160  HIS160      0.1621
    111  C         30.7280   -3.2100    5.3350 C.2   160  HIS160      0.2264
    112  O         31.7660   -3.6390    5.8230 O.2   160  HIS160     -0.2867
    113  CB        31.3460   -1.9850    3.2420 C.3   160  HIS160      0.0745
    114  CG        32.7810   -2.3040    2.9580 C.ar  160  HIS160      0.0817
    115  ND1       33.1860   -3.5180    2.4480 N.ar  160  HIS160     -0.2268
    116  CD2       33.8960   -1.5420    3.0500 C.ar  160  HIS160      0.1154
    117  CE1       34.4910   -3.4920    2.2380 C.ar  160  HIS160      0.1986
    118  NE2       34.9450   -2.3040    2.5950 N.ar  160  HIS160     -0.2212
    119  N         29.4100   -7.7270    8.4380 N.3   163  MET163     -0.1245
    120  CA        30.1990   -8.9260    8.2040 C.3   163  MET163      0.1570
    121  C         29.3070  -10.1490    8.3460 C.2   163  MET163      0.2261
    122  O         28.5330  -10.2610    9.2900 O.2   163  MET163     -0.2867
    123  CB        31.3990   -9.0020    9.1640 C.3   163  MET163      0.0387
    124  CG        32.5200   -7.9930    8.8710 C.3   163  MET163      0.0595
    125  SD        33.1340   -7.9880    7.1410 S.3   163  MET163     -0.1393
    126  CE        32.2720   -6.5750    6.4810 C.3   163  MET163      0.0692
    127  N         29.6870   -3.9540   11.9500 N.3   174  ILE174     -0.1231
    128  CA        30.9890   -3.3890   12.2950 C.3   174  ILE174      0.1692
    129  C         31.1700   -1.8860   12.0390 C.2   174  ILE174      0.2592
    130  O         30.2190   -1.1530   11.7660 O.2   174  ILE174     -0.2718
    131  CB        32.1210   -4.1390   11.5440 C.3   174  ILE174      0.0266
    132  CG1       31.9710   -3.9420   10.0280 C.3   174  ILE174      0.0019
    133  CG2       32.0690   -5.6350   11.8620 C.3   174  ILE174      0.0020
    134  CD1       33.1480   -4.4390    9.2150 C.3   174  ILE174      0.0001
    135  N         32.4290   -1.4630   12.1410 N.am  175  ASP175     -0.1974
    136  CA        32.8730   -0.0880   11.9340 C.3   175  ASP175      0.1709
    137  C         32.0020    0.9800   12.5890 C.2   175  ASP175      0.2293
    138  O         31.2410    1.6850   11.9230 O.2   175  ASP175     -0.2864
    139  CB        33.0670    0.1950   10.4390 C.3   175  ASP175      0.1436
    140  CG        34.0320    1.3420   10.1780 C.2   175  ASP175      0.3671
    141  OD1       34.3240    1.6080    8.9890 O.co2 175  ASP175     -0.2456
    142  OD2       34.4940    1.9770   11.1510 O.co2 175  ASP175     -0.2456
@<TRIPOS>BOND
     1    22    21    1
     2    21    23    1
     3    21    20    2
     4    18    17    1
     5    18    19    1
     6    20    19    1
     7    17    14    1
     8    19    12    1
     9    12    11    1
    10    11    10    1
    11    11    13    2
    12    10     9    1
    13    16    15    2
    14   117   115   ar
    15   117   118   ar
    16    14    13    1
    17    14    15    1
    18   115   114   ar
    19   118   116   ar
    20     9     3   am
    21    15    24   am
    22   114   116   ar
    23   114   113    1
    24   113   110    1
    25   109   110    1
    26   110   111    1
    27     3     4    2
    28     3     2    1
    29    24    25    1
    30    27    26    2
    31   104   103    2
    32    26    25    1
    33   103   102    1
    34     2     1    1
    35     2     5    1
    36   107   106    2
    37   111   112    2
    38   108   106   am
    39   106   105    1
    40     8     6    1
    41     5     6    1
    42   102   105    1
    43   102   101    1
    44   126   125    1
    45     6     7    1
    46   125   124    1
    47    31    30    2
    48    37    36    2
    49    40    38    1
    50   120   121    1
    51   120   119    1
    52   120   123    1
    53    28    29    1
    54   121   122    2
    55    30    29    1
    56    34    35    1
    57    36    35    1
    58   124   123    1
    59   141   140   ar
    60    38    35    1
    61    38    39    1
    62    29    32    1
    63   134   132    1
    64    97    96    2
    65   132   131    1
    66    96    95    1
    67    32    33    1
    68   140   139    1
    69   140   142   ar
    70   139   136    1
    71    99    98    1
    72    98    95    1
    73    98   100    1
    74    95    94    1
    75   131   133    1
    76   131   128    1
    77    46    45    1
    78   130   129    2
    79    47    45    1
    80   138   137    2
    81   136   135    1
    82   136   137    1
    83   127   128    1
    84   129   135   am
    85   129   128    1
    86    55    56    1
    87    55    54    1
    88    45    42    1
    89    53    54    1
    90    53    52    1
    91    49    52    1
    92    49    50    1
    93    49    48    1
    94    42    43    1
    95    42    41    1
    96    50    51    2
    97    43    44    2
    98    73    71    1
    99    88    87    2
   100    81    83   ar
   101    81    79   ar
   102    83    84   ar
   103    65    63   ar
   104    64    63   ar
   105    71    70    1
   106    70    72    1
   107    70    67    1
   108    87    86    1
   109    63    62    1
   110    78    79    1
   111    78    75    1
   112    79    80   ar
   113    84    82   ar
   114    77    76    2
   115    67    66    1
   116    67    68    1
   117    80    82   ar
   118    90    91    1
   119    90    89    1
   120    76    75    1
   121    76    85   am
   122    75    74    1
   123    91    92   ar
   124    91    93   ar
   125    62    61    1
   126    86    85    1
   127    86    89    1
   128    61    58    1
   129    68    69    2
   130    58    57    1
   131    58    59    1
   132    59    60    2
