@<TRIPOS>MOLECULE
tmp/2zk2A00.pdb
 164 152 0 0 0
SMALL
GASTEIGER

@<TRIPOS>ATOM
      1  N          3.9890   61.6340   10.2540 N.3    26  LEU26      -0.1245
      2  CA         4.6010   60.8150    9.2240 C.3    26  LEU26       0.1561
      3  C          4.8990   59.3760    9.6420 C.2    26  LEU26       0.2260
      4  O          5.9230   59.1070   10.2670 O.2    26  LEU26      -0.2867
      5  CB         5.8810   61.4910    8.7410 C.3    26  LEU26       0.0270
      6  CG         6.6930   60.7400    7.6850 C.3    26  LEU26       0.0019
      7  CD1        5.8340   60.4300    6.4790 C.3    26  LEU26       0.0001
      8  CD2        7.8960   61.5760    7.2870 C.3    26  LEU26       0.0001
      9  N         11.0150   74.4320    5.5830 N.3    62  PHE62      -0.1241
     10  CA        11.9730   74.5890    6.6770 C.3    62  PHE62       0.1605
     11  C         12.7120   75.8850    7.0550 C.2    62  PHE62       0.2264
     12  O         13.9470   75.9200    7.0660 O.2    62  PHE62      -0.2867
     13  CB        12.9890   73.4280    6.6470 C.3    62  PHE62       0.0534
     14  CG        13.8910   73.4000    5.4390 C.ar   62  PHE62      -0.0203
     15  CD1       14.7000   74.4880    5.1140 C.ar   62  PHE62      -0.0042
     16  CD2       14.0130   72.2290    4.6880 C.ar   62  PHE62      -0.0042
     17  CE1       15.6140   74.4140    4.0750 C.ar   62  PHE62      -0.0003
     18  CE2       14.9210   72.1410    3.6530 C.ar   62  PHE62      -0.0003
     19  CZ        15.7290   73.2330    3.3400 C.ar   62  PHE62      -0.0000
     20  N         11.8480   75.6130   10.8280 N.3    65  ILE65      -0.1245
     21  CA        12.7430   74.5970   11.3700 C.3    65  ILE65       0.1561
     22  C         13.7920   75.2780   12.2580 C.2    65  ILE65       0.2260
     23  O         13.7240   75.2050   13.5000 O.2    65  ILE65      -0.2867
     24  CB        13.4290   73.8150   10.2120 C.3    65  ILE65       0.0252
     25  CG1       12.5830   72.5860    9.8460 C.3    65  ILE65       0.0019
     26  CG2       14.8190   73.3840   10.6060 C.3    65  ILE65       0.0019
     27  CD1       11.1700   72.8990    9.4460 C.3    65  ILE65       0.0001
     28  N         23.8000   74.8540   10.6170 N.3    78  ARG78      -0.1231
     29  CA        22.4360   75.1640   10.2190 C.3    78  ARG78       0.1694
     30  C         21.5800   73.9040   10.2330 C.2    78  ARG78       0.2591
     31  O         20.4150   73.9210   10.6360 O.2    78  ARG78      -0.2718
     32  CB        22.4320   75.7730    8.8230 C.3    78  ARG78       0.0321
     33  CG        21.4040   76.8870    8.6260 C.3    78  ARG78       0.0489
     34  CD        21.3590   77.3180    7.1570 C.3    78  ARG78       0.2205
     35  NE        22.6900   77.6250    6.6360 N.pl3  78  ARG78      -0.0865
     36  CZ        23.0190   77.5770    5.3470 C.cat  78  ARG78       0.5346
     37  NH1       22.1140   77.2310    4.4350 N.pl3  78  ARG78       0.1354
     38  NH2       24.2560   77.8740    4.9710 N.pl3  78  ARG78       0.1354
     39  N         22.1780   72.8110    9.7820 N.am   79  ILE79      -0.1980
     40  CA        21.5060   71.5170    9.7210 C.3    79  ILE79       0.1595
     41  C         21.2660   71.0190   11.1290 C.2    79  ILE79       0.2287
     42  O         20.2010   70.4730   11.4450 O.2    79  ILE79      -0.2864
     43  CB        22.3820   70.4970    8.9720 C.3    79  ILE79       0.0276
     44  CG1       22.5900   70.9640    7.5340 C.3    79  ILE79       0.0022
     45  CG2       21.7670   69.1180    9.0480 C.3    79  ILE79       0.0022
     46  CD1       21.2930   71.2980    6.8000 C.3    79  ILE79       0.0001
     47  N         18.4300   72.5250   12.7410 N.3    82  GLY82      -0.1210
     48  CA        17.2050   71.9180   12.2760 C.3    82  GLY82       0.1956
     49  C         16.9060   70.6050   12.9590 C.2    82  GLY82       0.2612
     50  O         15.8400   70.4430   13.5470 O.2    82  GLY82      -0.2717
     51  N         17.8350   69.6610   12.8790 N.am   83  CYS83      -0.1970
     52  CA        17.6080   68.3700   13.5070 C.3    83  CYS83       0.1712
     53  C         17.3640   68.5210   15.0150 C.2    83  CYS83       0.2296
     54  O         16.7150   67.6750   15.6220 O.2    83  CYS83      -0.2864
     55  CB        18.7730   67.4120   13.1920 C.3    83  CYS83       0.0983
     56  SG        19.1060   66.3070   14.5810 S.3    83  CYS83      -0.0798
     57  N         13.7160   69.7560   15.4840 N.3    86  ARG86      -0.1245
     58  CA        12.8350   68.6760   15.0840 C.3    86  ARG86       0.1563
     59  C         12.7820   67.5720   16.1220 C.2    86  ARG86       0.2260
     60  O         11.8020   66.8410   16.2080 O.2    86  ARG86      -0.2867
     61  CB        13.2440   68.1320   13.7140 C.3    86  ARG86       0.0307
     62  CG        12.4720   68.7790   12.5510 C.3    86  ARG86       0.0489
     63  CD        12.4830   70.3210   12.5970 C.3    86  ARG86       0.2205
     64  NE        11.5190   70.8640   13.5610 N.pl3  86  ARG86      -0.0865
     65  CZ        10.2020   70.8720   13.3780 C.cat  86  ARG86       0.5346
     66  NH1        9.6890   70.3720   12.2630 N.pl3  86  ARG86       0.1354
     67  NH2        9.3940   71.3660   14.3100 N.pl3  86  ARG86       0.1354
     68  N         10.3580   68.5910   18.6700 N.3    89  GLU89      -0.1231
     69  CA         9.0260   68.2590   18.1990 C.3    89  GLU89       0.1699
     70  C          8.6810   66.7810   18.3710 C.2    89  GLU89       0.2592
     71  O          7.5290   66.4410   18.6580 O.2    89  GLU89      -0.2718
     72  CB         8.8860   68.6720   16.7310 C.3    89  GLU89       0.0402
     73  CG         7.4720   68.5790   16.1890 C.3    89  GLU89       0.1161
     74  CD         7.3190   69.3340   14.8840 C.2    89  GLU89       0.3649
     75  OE1        8.1350   69.0740   13.9660 O.co2  89  GLU89      -0.2457
     76  OE2        6.3980   70.1820   14.7820 O.co2  89  GLU89      -0.2457
     77  N          9.6700   65.9090   18.1810 N.am   90  ALA90      -0.1980
     78  CA         9.4550   64.4720   18.3360 C.3    90  ALA90       0.1597
     79  C          9.1600   64.1490   19.8000 C.2    90  ALA90       0.2287
     80  O          8.2490   63.3830   20.0980 O.2    90  ALA90      -0.2864
     81  CB        10.6750   63.6940   17.8580 C.3    90  ALA90       0.0319
     82  N          5.7130   64.8650   20.3350 N.3    93  GLU93      -0.1245
     83  CA         4.8260   63.8340   19.8010 C.3    93  GLU93       0.1567
     84  C          4.8520   62.5780   20.6580 C.2    93  GLU93       0.2260
     85  O          3.8100   62.0970   21.1010 O.2    93  GLU93      -0.2867
     86  CB         5.2240   63.4900   18.3690 C.3    93  GLU93       0.0388
     87  CG         4.8050   64.5300   17.3540 C.3    93  GLU93       0.1160
     88  CD         5.6350   64.4700   16.0850 C.2    93  GLU93       0.3649
     89  OE1        5.7080   63.3850   15.4600 O.co2  93  GLU93      -0.2457
     90  OE2        6.2160   65.5090   15.7160 O.co2  93  GLU93      -0.2457
     91  N         13.2130   57.1380   13.5690 N.3   128  LEU128     -0.1245
     92  CA        14.0500   57.7810   12.5770 C.3   128  LEU128      0.1561
     93  C         14.4490   56.7590   11.5150 C.2   128  LEU128      0.2260
     94  O         14.7060   57.1110   10.3620 O.2   128  LEU128     -0.2867
     95  CB        15.3140   58.3420   13.2110 C.3   128  LEU128      0.0270
     96  CG        16.2640   58.9300   12.1690 C.3   128  LEU128      0.0019
     97  CD1       15.6810   60.2430   11.6810 C.3   128  LEU128      0.0001
     98  CD2       17.6450   59.1290   12.7630 C.3   128  LEU128      0.0001
     99  N         12.3860   56.6040    8.3960 N.3   131  LEU131     -0.1245
    100  CA        12.6320   57.6300    7.3920 C.3   131  LEU131      0.1561
    101  C         13.9700   57.4670    6.6850 C.2   131  LEU131      0.2260
    102  O         14.4070   58.3780    5.9800 O.2   131  LEU131     -0.2867
    103  CB        12.6050   59.0200    8.0280 C.3   131  LEU131      0.0270
    104  CG        11.5790   59.3310    9.1090 C.3   131  LEU131      0.0019
    105  CD1       11.6230   60.8170    9.4290 C.3   131  LEU131      0.0001
    106  CD2       10.1990   58.9340    8.6340 C.3   131  LEU131      0.0001
    107  N         18.0920   60.1040    4.4620 N.3   137  VAL137     -0.1231
    108  CA        16.9520   60.2620    5.3340 C.3   137  VAL137      0.1692
    109  C         15.9870   61.3430    4.8510 C.2   137  VAL137      0.2592
    110  O         16.3900   62.3890    4.3430 O.2   137  VAL137     -0.2718
    111  CB        17.4310   60.5950    6.7690 C.3   137  VAL137      0.0266
    112  CG1       18.1960   61.8960    6.7680 C.3   137  VAL137      0.0020
    113  CG2       16.2720   60.6830    7.7040 C.3   137  VAL137      0.0020
    114  N         14.7030   61.0580    5.0150 N.am  138  LEU138     -0.1966
    115  CA        13.6480   61.9750    4.6400 C.3   138  LEU138      0.1728
    116  C         13.6960   63.1410    5.5920 C.2   138  LEU138      0.2616
    117  O         14.0080   62.9730    6.7700 O.2   138  LEU138     -0.2715
    118  CB        12.2800   61.2980    4.7490 C.3   138  LEU138      0.0311
    119  CG        11.9910   60.2550    3.6790 C.3   138  LEU138      0.0022
    120  CD1       10.6550   59.6320    3.9310 C.3   138  LEU138      0.0001
    121  CD2       12.0510   60.9090    2.3140 C.3   138  LEU138      0.0001
    122  N         13.3870   64.3250    5.0790 N.am  139  ILE139     -0.1963
    123  CA        13.3860   65.5230    5.8940 C.3   139  ILE139      0.1727
    124  C         12.1680   66.3730    5.6030 C.2   139  ILE139      0.2617
    125  O         11.4380   66.1290    4.6490 O.2   139  ILE139     -0.2715
    126  CB        14.6710   66.3780    5.6830 C.3   139  ILE139      0.0290
    127  CG1       14.6900   67.0190    4.3000 C.3   139  ILE139      0.0022
    128  CG2       15.9050   65.5090    5.8800 C.3   139  ILE139      0.0023
    129  CD1       15.8390   67.9940    4.1260 C.3   139  ILE139      0.0001
    130  N         11.9430   67.3600    6.4580 N.am  140  SER140     -0.1936
    131  CA        10.8190   68.2680    6.3180 C.3   140  SER140      0.2055
    132  C          9.5170   67.5600    5.9460 C.2   140  SER140      0.2643
    133  O          8.9700   67.7860    4.8630 O.2   140  SER140     -0.2714
    134  CB        11.1500   69.3400    5.2750 C.3   140  SER140      0.2130
    135  OG        10.1540   70.3460    5.2530 O.3   140  SER140     -0.2179
    136  N          9.0320   66.7100    6.8520 N.am  141  GLU141     -0.1963
    137  CA         7.7820   65.9600    6.6640 C.3   141  GLU141      0.1733
    138  C          7.7040   65.1310    5.3660 C.2   141  GLU141      0.2616
    139  O          6.6180   64.8840    4.8480 O.2   141  GLU141     -0.2715
    140  CB         6.5780   66.9200    6.7040 C.3   141  GLU141      0.0429
    141  CG         6.4360   67.7830    7.9630 C.3   141  GLU141      0.1163
    142  CD         5.7830   67.0610    9.1490 C.2   141  GLU141      0.3649
    143  OE1        5.2970   67.7590   10.0740 O.co2 141  GLU141     -0.2457
    144  OE2        5.7520   65.8070    9.1710 O.co2 141  GLU141     -0.2457
    145  N          8.8470   64.7100    4.8420 N.am  142  GLY142     -0.1955
    146  CA         8.8440   63.9210    3.6250 C.3   142  GLY142      0.1869
    147  C          9.1020   64.6630    2.3260 C.2   142  GLY142      0.2309
    148  O          9.3190   64.0330    1.3030 O.2   142  GLY142     -0.2863
    149  N         17.8010   64.0430    2.4010 N.3   146  MET146     -0.1245
    150  CA        19.1980   64.4360    2.5170 C.3   146  MET146      0.1570
    151  C         20.0180   63.1490    2.4510 C.2   146  MET146      0.2261
    152  O         19.7670   62.2120    3.2110 O.2   146  MET146     -0.2867
    153  CB        19.4050   65.1650    3.8470 C.3   146  MET146      0.0387
    154  CG        20.6880   65.9730    3.9440 C.3   146  MET146      0.0595
    155  SD        20.6930   67.0010    5.4440 S.3   146  MET146     -0.1393
    156  CE        20.0260   68.5250    4.7660 C.3   146  MET146      0.0692
    157  N         25.2060   61.3480   12.3760 N.3   162  MET162     -0.1245
    158  CA        24.2540   60.4720   11.7120 C.3   162  MET162      0.1570
    159  C         24.6870   59.0730   11.2900 C.2   162  MET162      0.2261
    160  O         23.8620   58.1620   11.2810 O.2   162  MET162     -0.2867
    161  CB        23.6420   61.2010   10.5170 C.3   162  MET162      0.0387
    162  CG        22.8580   62.4660   10.8890 C.3   162  MET162      0.0595
    163  SD        21.4510   62.2220   12.0170 S.3   162  MET162     -0.1393
    164  CE        20.3190   61.3100   11.0000 C.3   162  MET162      0.0692
@<TRIPOS>BOND
     1   148   147    2
     2   121   119    1
     3   147   146    1
     4   149   150    1
     5   151   150    1
     6   151   152    2
     7   150   153    1
     8    19    18   ar
     9    19    17   ar
    10   146   145    1
    11    18    16   ar
    12   119   120    1
    13   119   118    1
    14   153   154    1
    15   154   155    1
    16    17    15   ar
    17   129   127    1
    18   127   126    1
    19   110   109    2
    20    37    36    1
    21   107   108    1
    22   115   118    1
    23   115   114    1
    24   115   116    1
    25   125   124    2
    26    16    14   ar
    27   156   155    1
    28   145   138   am
    29   139   138    2
    30   109   114   am
    31   109   108    1
    32   133   132    2
    33    38    36    1
    34   122   116   am
    35   122   123    1
    36    15    14   ar
    37   135   134    1
    38   134   131    1
    39   108   111    1
    40    36    35    2
    41   138   137    1
    42    14    13    1
    43     9    10    1
    44   116   117    2
    45   124   123    1
    46   124   130   am
    47   126   128    1
    48   126   123    1
    49   132   131    1
    50   132   136   am
    51   102   101    2
    52   131   130    1
    53     7     6    1
    54    35    34    1
    55    13    10    1
    56   137   140    1
    57   137   136    1
    58    10    11    1
    59   101   100    1
    60   140   141    1
    61   112   111    1
    62   111   113    1
    63    46    44    1
    64    11    12    2
    65    34    33    1
    66     8     6    1
    67   100   103    1
    68   100    99    1
    69    44    43    1
    70     6     5    1
    71   141   142    1
    72   103   104    1
    73    33    32    1
    74   106   104    1
    75     5     2    1
    76    32    29    1
    77    43    45    1
    78    43    40    1
    79   104   105    1
    80   142   144   ar
    81   142   143   ar
    82     2     3    1
    83     2     1    1
    84    27    25    1
    85     3     4    2
    86    40    39    1
    87    40    41    1
    88    39    30   am
    89    25    24    1
    90    24    26    1
    91    24    21    1
    92    29    30    1
    93    29    28    1
    94    30    31    2
    95    94    93    2
    96   161   162    1
    97   161   158    1
    98    20    21    1
    99   162   163    1
   100   164   163    1
   101    41    42    2
   102   160   159    2
   103   159   158    1
   104    21    22    1
   105    93    92    1
   106    97    96    1
   107   158   157    1
   108    96    98    1
   109    96    95    1
   110    22    23    2
   111    66    65    1
   112    48    47    1
   113    48    49    1
   114    62    63    1
   115    62    61    1
   116    92    95    1
   117    92    91    1
   118    63    64    1
   119    51    49   am
   120    51    52    1
   121    49    50    2
   122    55    52    1
   123    55    56    1
   124    65    64    2
   125    65    67    1
   126    52    53    1
   127    61    58    1
   128    75    74   ar
   129    76    74   ar
   130    74    73    1
   131    53    54    2
   132    58    57    1
   133    58    59    1
   134    89    88   ar
   135    90    88   ar
   136    88    87    1
   137    59    60    2
   138    73    72    1
   139    72    69    1
   140    87    86    1
   141    81    78    1
   142    77    78    1
   143    77    70   am
   144    69    70    1
   145    69    68    1
   146    78    79    1
   147    86    83    1
   148    70    71    2
   149    79    80    2
   150    83    82    1
   151    83    84    1
   152    84    85    2
