@<TRIPOS>MOLECULE
tmp/2zk5A00.pdb
 167 156 0 0 0
SMALL
GASTEIGER

@<TRIPOS>ATOM
      1  N         21.5940   71.5840   -1.8920 N.3    53  LEU53      -0.1245
      2  CA        21.2110   72.0290   -0.5660 C.3    53  LEU53       0.1561
      3  C         20.6590   73.4430   -0.6960 C.2    53  LEU53       0.2260
      4  O         19.6390   73.7750   -0.1060 O.2    53  LEU53      -0.2867
      5  CB        22.4240   72.0110    0.3680 C.3    53  LEU53       0.0270
      6  CG        22.1760   72.2660    1.8630 C.3    53  LEU53       0.0019
      7  CD1       22.2960   73.7500    2.1850 C.3    53  LEU53       0.0001
      8  CD2       20.8020   71.7300    2.2540 C.3    53  LEU53       0.0001
      9  N         12.9070   75.5610    4.7970 N.3    62  PHE62      -0.1241
     10  CA        14.1270   75.4290    5.5780 C.3    62  PHE62       0.1605
     11  C         14.4730   76.6340    6.4630 C.2    62  PHE62       0.2264
     12  O         15.6520   76.9540    6.6620 O.2    62  PHE62      -0.2867
     13  CB        15.2850   75.0860    4.6420 C.3    62  PHE62       0.0534
     14  CG        15.2250   73.6800    4.1080 C.ar   62  PHE62      -0.0203
     15  CD1       16.2600   73.1730    3.3280 C.ar   62  PHE62      -0.0042
     16  CD2       14.1430   72.8490    4.4160 C.ar   62  PHE62      -0.0042
     17  CE1       16.2290   71.8660    2.8670 C.ar   62  PHE62      -0.0003
     18  CE2       14.0950   71.5430    3.9650 C.ar   62  PHE62      -0.0003
     19  CZ        15.1440   71.0440    3.1870 C.ar   62  PHE62      -0.0000
     20  N         12.4580   75.6970   10.3960 N.3    65  ILE65      -0.1245
     21  CA        13.2560   74.5890   10.9150 C.3    65  ILE65       0.1561
     22  C         14.5180   75.1900   11.5500 C.2    65  ILE65       0.2260
     23  O         14.7010   75.0910   12.7660 O.2    65  ILE65      -0.2867
     24  CB        13.6160   73.6120    9.7530 C.3    65  ILE65       0.0252
     25  CG1       14.8930   72.8190   10.0480 C.3    65  ILE65       0.0019
     26  CG2       13.7940   74.4020    8.4650 C.3    65  ILE65       0.0019
     27  CD1       16.1630   73.4200    9.4240 C.3    65  ILE65       0.0001
     28  N         22.5320   72.6840    9.4020 N.3    79  ILE79      -0.1245
     29  CA        21.9860   71.3360    9.3060 C.3    79  ILE79       0.1561
     30  C         21.6870   70.8160   10.7040 C.2    79  ILE79       0.2260
     31  O         20.5540   70.4350   11.0110 O.2    79  ILE79      -0.2867
     32  CB        23.0080   70.3600    8.6710 C.3    79  ILE79       0.0252
     33  CG1       23.3470   70.7910    7.2450 C.3    79  ILE79       0.0019
     34  CG2       22.4770   68.9390    8.7360 C.3    79  ILE79       0.0019
     35  CD1       22.1490   70.8450    6.3060 C.3    79  ILE79       0.0001
     36  N         18.8460   72.1340   12.1730 N.3    82  GLY82      -0.1210
     37  CA        17.6080   71.6530   11.5990 C.3    82  GLY82       0.1956
     38  C         17.2200   70.3830   12.3180 C.2    82  GLY82       0.2612
     39  O         16.0960   70.2470   12.7940 O.2    82  GLY82      -0.2717
     40  N         18.1830   69.4680   12.3990 N.am   83  CYS83      -0.1970
     41  CA        18.0370   68.1760   13.0540 C.3    83  CYS83       0.1712
     42  C         17.5270   68.2990   14.4930 C.2    83  CYS83       0.2296
     43  O         16.6020   67.5890   14.8890 O.2    83  CYS83      -0.2864
     44  CB        19.3930   67.4550   13.0380 C.3    83  CYS83       0.0983
     45  SG        19.2400   65.7150   13.4750 S.3    83  CYS83      -0.0798
     46  N         13.9100   69.2460   14.7630 N.3    86  ARG86      -0.1231
     47  CA        13.0870   68.1150   14.3660 C.3    86  ARG86       0.1694
     48  C         13.0190   67.0660   15.4630 C.2    86  ARG86       0.2592
     49  O         12.0820   66.2630   15.5110 O.2    86  ARG86      -0.2718
     50  CB        13.6280   67.4820   13.0890 C.3    86  ARG86       0.0321
     51  CG        12.5780   67.3920   11.9800 C.3    86  ARG86       0.0489
     52  CD        12.2570   68.7700   11.4100 C.3    86  ARG86       0.2205
     53  NE        11.1720   68.7340   10.4320 N.pl3  86  ARG86      -0.0865
     54  CZ        10.8330   69.7610    9.6430 C.cat  86  ARG86       0.5346
     55  NH1       11.5010   70.9070    9.7050 N.pl3  86  ARG86       0.1354
     56  NH2        9.8140   69.6560    8.7970 N.pl3  86  ARG86       0.1354
     57  N         14.0190   67.0740   16.3400 N.am   87  SER87      -0.1952
     58  CA        14.0660   66.1220   17.4460 C.3    87  SER87       0.1924
     59  C         13.1040   66.6020   18.5230 C.2    87  SER87       0.2314
     60  O         12.3380   65.8200   19.0710 O.2    87  SER87      -0.2863
     61  CB        15.4870   66.0290   18.0090 C.3    87  SER87       0.2116
     62  OG        16.4470   65.8820   16.9730 O.3    87  SER87      -0.2180
     63  N          9.8750   65.5610   17.5320 N.3    90  ALA90      -0.1245
     64  CA         9.6630   64.1520   17.8280 C.3    90  ALA90       0.1562
     65  C          9.4130   63.9180   19.3160 C.2    90  ALA90       0.2260
     66  O          8.5340   63.1470   19.6960 O.2    90  ALA90      -0.2867
     67  CB        10.8590   63.3500   17.3710 C.3    90  ALA90       0.0290
     68  N         13.3110   57.9950   19.2950 N.3   124  ILE124     -0.1231
     69  CA        13.5100   58.8340   18.1510 C.3   124  ILE124      0.1692
     70  C         14.3390   58.1240   17.1130 C.2   124  ILE124      0.2592
     71  O         14.0490   58.1950   15.9280 O.2   124  ILE124     -0.2718
     72  CB        14.1800   60.1380   18.5760 C.3   124  ILE124      0.0266
     73  CG1       13.1170   61.0720   19.1520 C.3   124  ILE124      0.0019
     74  CG2       14.9120   60.7730   17.4100 C.3   124  ILE124      0.0020
     75  CD1       13.6800   62.2980   19.8240 C.3   124  ILE124      0.0001
     76  N         15.3610   57.4100   17.5450 N.am  125  TYR125     -0.1976
     77  CA        16.2120   56.7290   16.5810 C.3   125  TYR125      0.1639
     78  C         15.5810   55.4410   16.0660 C.2   125  TYR125      0.2290
     79  O         15.9540   54.9320   15.0200 O.2   125  TYR125     -0.2864
     80  CB        17.5960   56.5250   17.2010 C.3   125  TYR125      0.0560
     81  CG        18.2030   57.8610   17.5710 C.ar  125  TYR125     -0.0198
     82  CD1       18.8970   58.0430   18.7640 C.ar  125  TYR125     -0.0009
     83  CD2       18.0390   58.9680   16.7340 C.ar  125  TYR125     -0.0009
     84  CE1       19.4120   59.3060   19.1160 C.ar  125  TYR125      0.0417
     85  CE2       18.5470   60.2190   17.0700 C.ar  125  TYR125      0.0417
     86  CZ        19.2360   60.3890   18.2590 C.ar  125  TYR125      0.1957
     87  OH        19.7810   61.6260   18.5540 O.3   125  TYR125     -0.2866
     88  N         13.2520   56.9810   13.5810 N.3   128  LEU128     -0.1245
     89  CA        14.0220   57.6010   12.5180 C.3   128  LEU128      0.1561
     90  C         14.4350   56.5440   11.5020 C.2   128  LEU128      0.2260
     91  O         14.7060   56.8540   10.3430 O.2   128  LEU128     -0.2867
     92  CB        15.2770   58.2650   13.0690 C.3   128  LEU128      0.0270
     93  CG        16.1730   58.8400   11.9680 C.3   128  LEU128      0.0019
     94  CD1       15.5410   60.1200   11.4480 C.3   128  LEU128      0.0001
     95  CD2       17.5680   59.0990   12.4970 C.3   128  LEU128      0.0001
     96  N         12.4210   56.4080    8.3600 N.3   131  LEU131     -0.1245
     97  CA        12.6260   57.3600    7.2710 C.3   131  LEU131      0.1561
     98  C         13.9490   57.1580    6.5390 C.2   131  LEU131      0.2260
     99  O         14.3200   57.9770    5.7080 O.2   131  LEU131     -0.2867
    100  CB        12.5980   58.8020    7.7870 C.3   131  LEU131      0.0270
    101  CG        11.6590   59.1850    8.9280 C.3   131  LEU131      0.0019
    102  CD1       11.7650   60.6790    9.1760 C.3   131  LEU131      0.0001
    103  CD2       10.2400   58.7920    8.5940 C.3   131  LEU131      0.0001
    104  N         18.2090   59.7480    4.2490 N.3   137  VAL137     -0.1231
    105  CA        17.0710   59.9230    5.1340 C.3   137  VAL137      0.1692
    106  C         16.1260   61.0440    4.7290 C.2   137  VAL137      0.2592
    107  O         16.5440   62.0530    4.1840 O.2   137  VAL137     -0.2718
    108  CB        17.5660   60.1850    6.5750 C.3   137  VAL137      0.0266
    109  CG1       18.2010   61.5600    6.6650 C.3   137  VAL137      0.0020
    110  CG2       16.4310   60.0480    7.5560 C.3   137  VAL137      0.0020
    111  N         14.8440   60.8500    5.0090 N.am  138  LEU138     -0.1966
    112  CA        13.8220   61.8420    4.7010 C.3   138  LEU138      0.1728
    113  C         13.8610   62.9740    5.7230 C.2   138  LEU138      0.2616
    114  O         14.1930   62.7700    6.8940 O.2   138  LEU138     -0.2715
    115  CB        12.4190   61.2180    4.7240 C.3   138  LEU138      0.0311
    116  CG        12.1380   60.0570    3.7770 C.3   138  LEU138      0.0022
    117  CD1       10.6920   59.6440    3.9000 C.3   138  LEU138      0.0001
    118  CD2       12.4680   60.4680    2.3580 C.3   138  LEU138      0.0001
    119  N         13.5120   64.1690    5.2670 N.am  139  ILE139     -0.1963
    120  CA        13.4830   65.3340    6.1310 C.3   139  ILE139      0.1727
    121  C         12.2880   66.1820    5.7660 C.2   139  ILE139      0.2616
    122  O         11.5620   65.8780    4.8290 O.2   139  ILE139     -0.2715
    123  CB        14.7440   66.2100    5.9720 C.3   139  ILE139      0.0290
    124  CG1       14.8530   66.7040    4.5290 C.3   139  ILE139      0.0022
    125  CG2       15.9730   65.4300    6.3920 C.3   139  ILE139      0.0023
    126  CD1       15.7970   67.8810    4.3610 C.3   139  ILE139      0.0001
    127  N         12.0960   67.2510    6.5240 N.am  140  SER140     -0.1950
    128  CA        11.0070   68.1740    6.2830 C.3   140  SER140      0.1924
    129  C          9.7050   67.4370    5.9620 C.2   140  SER140      0.2314
    130  O          9.0630   67.6900    4.9410 O.2   140  SER140     -0.2863
    131  CB        11.4000   69.1180    5.1400 C.3   140  SER140      0.2116
    132  OG        10.6350   70.3110    5.1860 O.3   140  SER140     -0.2180
    133  N         17.8800   63.6770    2.3920 N.3   146  MET146     -0.1245
    134  CA        19.2820   64.0650    2.4840 C.3   146  MET146      0.1570
    135  C         20.1290   62.8050    2.3800 C.2   146  MET146      0.2261
    136  O         19.8990   61.8290    3.0980 O.2   146  MET146     -0.2867
    137  CB        19.5680   64.7970    3.7880 C.3   146  MET146      0.0387
    138  CG        20.7870   65.7150    3.6870 C.3   146  MET146      0.0595
    139  SD        20.8440   66.9930    4.9850 S.3   146  MET146     -0.1393
    140  CE        19.2240   67.6770    4.7640 C.3   146  MET146      0.0692
    141  N         25.7960   64.1340    4.4740 N.3   151  LEU151     -0.1245
    142  CA        25.9850   64.2080    5.9110 C.3   151  LEU151      0.1561
    143  C         27.3610   63.7200    6.3400 C.2   151  LEU151      0.2260
    144  O         28.0800   64.4310    7.0490 O.2   151  LEU151     -0.2867
    145  CB        24.9070   63.3950    6.6260 C.3   151  LEU151      0.0270
    146  CG        23.4780   63.8530    6.3180 C.3   151  LEU151      0.0019
    147  CD1       22.4910   62.8880    6.9110 C.3   151  LEU151      0.0001
    148  CD2       23.2400   65.2560    6.8600 C.3   151  LEU151      0.0001
    149  N         27.7520   62.7000   13.2450 N.3   161  PHE161     -0.1227
    150  CA        26.6390   62.4090   14.1360 C.3   161  PHE161      0.1736
    151  C         25.5430   61.5020   13.5810 C.2   161  PHE161      0.2595
    152  O         24.7830   60.9150   14.3450 O.2   161  PHE161     -0.2718
    153  CB        26.0180   63.7150   14.6820 C.3   161  PHE161      0.0547
    154  CG        25.1510   64.4550   13.6990 C.ar  161  PHE161     -0.0202
    155  CD1       23.8350   64.7920   14.0330 C.ar  161  PHE161     -0.0042
    156  CD2       25.6470   64.8490   12.4560 C.ar  161  PHE161     -0.0042
    157  CE1       23.0230   65.5170   13.1390 C.ar  161  PHE161     -0.0003
    158  CE2       24.8450   65.5730   11.5540 C.ar  161  PHE161     -0.0003
    159  CZ        23.5330   65.9060   11.8980 C.ar  161  PHE161     -0.0000
    160  N         25.4740   61.3480   12.2630 N.am  162  MET162     -0.1979
    161  CA        24.4230   60.5230   11.6830 C.3   162  MET162      0.1605
    162  C         24.7610   59.0720   11.3090 C.2   162  MET162      0.2287
    163  O         23.8730   58.2100   11.2920 O.2   162  MET162     -0.2864
    164  CB        23.7990   61.2660   10.4970 C.3   162  MET162      0.0413
    165  CG        22.9070   62.4320   10.9320 C.3   162  MET162      0.0598
    166  SD        21.4000   61.9630   11.8870 S.3   162  MET162     -0.1393
    167  CE        20.1920   61.6540   10.5740 C.3   162  MET162      0.0692
@<TRIPOS>BOND
     1     1     2    1
     2     3     2    1
     3     3     4    2
     4     2     5    1
     5     5     6    1
     6     6     7    1
     7     6     8    1
     8   118   116    1
     9   135   134    1
    10   135   136    2
    11   133   134    1
    12   134   137    1
    13    17    19   ar
    14    17    15   ar
    15    19    18   ar
    16    15    14   ar
    17   138   137    1
    18   138   139    1
    19   116   117    1
    20   116   115    1
    21    18    16   ar
    22    14    16   ar
    23    14    13    1
    24   107   106    2
    25   104   105    1
    26   126   124    1
    27   141   142    1
    28   124   123    1
    29    13    10    1
    30   112   115    1
    31   112   111    1
    32   112   113    1
    33   106   111   am
    34   106   105    1
    35   140   139    1
    36     9    10    1
    37   122   121    2
    38   130   129    2
    39   105   108    1
    40   131   132    1
    41   131   128    1
    42   119   113   am
    43   119   120    1
    44    10    11    1
    45    99    98    2
    46   113   114    2
    47   121   120    1
    48   121   127   am
    49   142   143    1
    50   142   145    1
    51   129   128    1
    52   123   120    1
    53   123   125    1
    54   128   127    1
    55    35    33    1
    56   146   145    1
    57   146   148    1
    58   146   147    1
    59   143   144    2
    60    11    12    2
    61    98    97    1
    62   108   109    1
    63   108   110    1
    64    33    32    1
    65    97   100    1
    66    97    96    1
    67   100   101    1
    68    26    24    1
    69   103   101    1
    70    32    34    1
    71    32    29    1
    72    56    54    1
    73   101   102    1
    74    29    28    1
    75    29    30    1
    76    27    25    1
    77    54    55    1
    78    54    53    2
    79    24    25    1
    80    24    21    1
    81    91    90    2
    82    20    21    1
    83    53    52    1
    84   164   165    1
    85   164   161    1
    86   167   166    1
    87    30    31    2
    88    21    22    1
    89   165   166    1
    90   163   162    2
    91   162   161    1
    92    52    51    1
    93    94    93    1
    94    90    89    1
    95    22    23    2
    96   158   159   ar
    97   158   156   ar
    98    37    36    1
    99    37    38    1
   100   161   160    1
   101   159   157   ar
   102    93    95    1
   103    93    92    1
   104    51    50    1
   105   160   151   am
   106    38    40   am
   107    38    39    2
   108    40    41    1
   109   156   154   ar
   110    89    92    1
   111    89    88    1
   112    44    41    1
   113    44    45    1
   114    41    42    1
   115    50    47    1
   116   157   155   ar
   117   149   150    1
   118   151   150    1
   119   151   152    2
   120   154   155   ar
   121   154   153    1
   122   150   153    1
   123    47    46    1
   124    47    48    1
   125    42    43    2
   126    79    78    2
   127    48    49    2
   128    48    57   am
   129    71    70    2
   130    78    77    1
   131    57    58    1
   132    77    80    1
   133    77    76    1
   134    83    85   ar
   135    83    81   ar
   136    62    61    1
   137    85    86   ar
   138    70    76   am
   139    70    69    1
   140    80    81    1
   141    67    64    1
   142    74    72    1
   143    58    61    1
   144    58    59    1
   145    63    64    1
   146    81    82   ar
   147    64    65    1
   148    69    72    1
   149    69    68    1
   150    86    87    1
   151    86    84   ar
   152    59    60    2
   153    72    73    1
   154    82    84   ar
   155    73    75    1
   156    65    66    2
