@<TRIPOS>MOLECULE
tmp/2zk6B00.pdb
 229 218 0 0 0
SMALL
GASTEIGER

@<TRIPOS>ATOM
      1  N         31.8180   23.6980   34.1730 N.3    20  PHE20      -0.1228
      2  CA        31.9400   24.6220   35.2770 C.3    20  PHE20       0.1721
      3  C         31.9600   23.8950   36.6020 C.2    20  PHE20       0.2437
      4  O         31.1660   22.9810   36.8640 O.2    20  PHE20      -0.2733
      5  CB        30.8160   25.6660   35.2110 C.3    20  PHE20       0.0547
      6  CG        30.8570   26.4870   33.9570 C.ar   20  PHE20      -0.0202
      7  CD1       31.8730   27.4080   33.7530 C.ar   20  PHE20      -0.0042
      8  CD2       29.9530   26.2550   32.9250 C.ar   20  PHE20      -0.0042
      9  CE1       31.9970   28.0760   32.5400 C.ar   20  PHE20      -0.0003
     10  CE2       30.0690   26.9220   31.7000 C.ar   20  PHE20      -0.0003
     11  CZ        31.0960   27.8310   31.5090 C.ar   20  PHE20      -0.0000
     12  N         32.9020   24.2790   37.4570 N.am   21  PRO21      -0.2718
     13  CA        33.0310   23.6490   38.7710 C.3    21  PRO21       0.1535
     14  C         31.9280   24.1250   39.7130 C.2    21  PRO21       0.2598
     15  O         31.0130   23.3780   40.0730 O.2    21  PRO21      -0.2715
     16  CB        34.4270   24.0970   39.2370 C.3    21  PRO21       0.0310
     17  CG        35.1480   24.4710   37.9300 C.3    21  PRO21       0.0237
     18  CD        34.0430   25.1650   37.1750 C.3    21  PRO21       0.0939
     19  N         32.0250   25.3840   40.1040 N.am   22  LEU22      -0.1978
     20  CA        31.0640   25.9590   41.0160 C.3    22  LEU22       0.1596
     21  C         29.8180   26.3350   40.2240 C.2    22  LEU22       0.2287
     22  O         29.8730   27.1780   39.3280 O.2    22  LEU22      -0.2864
     23  CB        31.7000   27.1810   41.6780 C.3    22  LEU22       0.0297
     24  CG        31.1790   27.7720   42.9870 C.3    22  LEU22       0.0022
     25  CD1       31.0550   26.7210   44.0580 C.3    22  LEU22       0.0001
     26  CD2       32.1440   28.8610   43.4120 C.3    22  LEU22       0.0001
     27  N         44.7750   30.2240   47.8180 N.3    55  PHE55      -0.1241
     28  CA        44.3960   30.6400   46.4640 C.3    55  PHE55       0.1605
     29  C         45.5840   31.3360   45.8250 C.2    55  PHE55       0.2264
     30  O         45.5720   31.6680   44.6370 O.2    55  PHE55      -0.2867
     31  CB        43.2110   31.6220   46.4930 C.3    55  PHE55       0.0534
     32  CG        43.5400   32.9760   47.0920 C.ar   55  PHE55      -0.0203
     33  CD1       42.9610   33.3750   48.2960 C.ar   55  PHE55      -0.0042
     34  CD2       44.4080   33.8560   46.4440 C.ar   55  PHE55      -0.0042
     35  CE1       43.2390   34.6290   48.8430 C.ar   55  PHE55      -0.0003
     36  CE2       44.6930   35.1060   46.9800 C.ar   55  PHE55      -0.0003
     37  CZ        44.1050   35.4950   48.1830 C.ar   55  PHE55      -0.0000
     38  N         47.8400   32.8630   42.2340 N.3    58  ILE58      -0.1245
     39  CA        47.9970   34.1930   41.6280 C.3    58  ILE58       0.1561
     40  C         49.0460   35.0890   42.2940 C.2    58  ILE58       0.2260
     41  O         49.3620   36.1740   41.7740 O.2    58  ILE58      -0.2867
     42  CB        46.6840   35.0080   41.7270 C.3    58  ILE58       0.0252
     43  CG1       46.5150   35.5140   43.1650 C.3    58  ILE58       0.0019
     44  CG2       45.4800   34.1250   41.4160 C.3    58  ILE58       0.0019
     45  CD1       45.5320   36.6280   43.3220 C.3    58  ILE58       0.0001
     46  N         44.5670   42.0790   44.3320 N.3    72  ILE72      -0.1245
     47  CA        43.2100   41.5660   44.2620 C.3    72  ILE72       0.1561
     48  C         42.8170   41.5590   42.7770 C.2    72  ILE72       0.2260
     49  O         42.3790   40.5410   42.2360 O.2    72  ILE72      -0.2867
     50  CB        42.2240   42.4350   45.0780 C.3    72  ILE72       0.0252
     51  CG1       42.7450   42.6170   46.5090 C.3    72  ILE72       0.0019
     52  CG2       40.8560   41.7480   45.1340 C.3    72  ILE72       0.0019
     53  CD1       41.7820   43.3300   47.4250 C.3    72  ILE72       0.0001
     54  N         44.1930   39.0580   40.8340 N.3    75  GLY75      -0.1210
     55  CA        43.4940   37.7990   41.0550 C.3    75  GLY75       0.1956
     56  C         42.1810   37.7160   40.3090 C.2    75  GLY75       0.2612
     57  O         41.6570   36.6300   40.0560 O.2    75  GLY75      -0.2717
     58  N         41.6350   38.8790   39.9820 N.am   76  CYS76      -0.1970
     59  CA        40.3930   38.9570   39.2280 C.3    76  CYS76       0.1712
     60  C         40.7370   38.4510   37.8330 C.2    76  CYS76       0.2296
     61  O         39.9400   37.7830   37.1890 O.2    76  CYS76      -0.2864
     62  CB        39.8870   40.4210   39.2120 C.3    76  CYS76       0.0983
     63  SG        38.8910   41.0360   37.7830 S.3    76  CYS76      -0.0798
     64  N         41.7210   34.2510   37.5640 N.3    79  ARG79      -0.1231
     65  CA        40.5090   33.4350   37.5350 C.3    79  ARG79       0.1694
     66  C         39.7090   33.6990   36.2690 C.2    79  ARG79       0.2592
     67  O         38.9380   32.8580   35.8110 O.2    79  ARG79      -0.2718
     68  CB        39.6520   33.7170   38.7720 C.3    79  ARG79       0.0321
     69  CG        38.2780   33.0680   38.7670 C.3    79  ARG79       0.0489
     70  CD        38.3050   31.6370   38.2680 C.3    79  ARG79       0.2205
     71  NE        37.0060   30.9860   38.4300 N.pl3  79  ARG79      -0.0865
     72  CZ        36.5270   30.0450   37.6190 C.cat  79  ARG79       0.5346
     73  NH1       37.2320   29.6340   36.5740 N.pl3  79  ARG79       0.1354
     74  NH2       35.3360   29.5150   37.8500 N.pl3  79  ARG79       0.1354
     75  N         39.8960   34.8770   35.6990 N.am   80  SER80      -0.1952
     76  CA        39.1990   35.2090   34.4800 C.3    80  SER80       0.1924
     77  C         39.7850   34.3770   33.3590 C.2    80  SER80       0.2314
     78  O         39.0530   33.7770   32.5790 O.2    80  SER80      -0.2863
     79  CB        39.3420   36.6990   34.1840 C.3    80  SER80       0.2116
     80  OG        38.4500   37.4420   34.9980 O.3    80  SER80      -0.2180
     81  N         41.2100   31.6660   33.5750 N.3    82  GLU82      -0.1231
     82  CA        40.8380   30.2970   33.8670 C.3    82  GLU82       0.1699
     83  C         39.4630   30.0210   33.2790 C.2    82  GLU82       0.2592
     84  O         39.2440   29.0200   32.5950 O.2    82  GLU82      -0.2718
     85  CB        40.7810   30.1510   35.3770 C.3    82  GLU82       0.0402
     86  CG        41.1680   28.8280   35.9320 C.3    82  GLU82       0.1161
     87  CD        41.5260   28.9430   37.3940 C.2    82  GLU82       0.3649
     88  OE1       40.6830   29.4460   38.1710 O.co2  82  GLU82      -0.2457
     89  OE2       42.6500   28.5460   37.7580 O.co2  82  GLU82      -0.2457
     90  N         38.5340   30.9260   33.5820 N.am   83  ALA83      -0.1980
     91  CA        37.1510   30.8380   33.1360 C.3    83  ALA83       0.1597
     92  C         37.0300   30.8290   31.6180 C.2    83  ALA83       0.2287
     93  O         36.1970   30.1160   31.0650 O.2    83  ALA83      -0.2864
     94  CB        36.3660   31.9880   33.7110 C.3    83  ALA83       0.0319
     95  N         37.2330   27.5430   30.3720 N.3    86  GLU86      -0.1245
     96  CA        36.0500   26.7820   30.6990 C.3    86  GLU86       0.1567
     97  C         34.9170   27.1810   29.7530 C.2    86  GLU86       0.2260
     98  O         34.1150   26.3370   29.3510 O.2    86  GLU86      -0.2867
     99  CB        35.6280   27.0660   32.1170 C.3    86  GLU86       0.0388
    100  CG        36.7590   27.1690   33.0900 C.3    86  GLU86       0.1160
    101  CD        36.2360   27.4170   34.4760 C.2    86  GLU86       0.3649
    102  OE1       35.4770   28.3970   34.6460 O.co2  86  GLU86      -0.2457
    103  OE2       36.5660   26.6320   35.3930 O.co2  86  GLU86      -0.2457
    104  N         31.2260   35.9590   31.5100 N.3   117  ILE117     -0.1231
    105  CA        31.8670   36.0570   32.8120 C.3   117  ILE117      0.1692
    106  C         31.0040   36.8230   33.8060 C.2   117  ILE117      0.2592
    107  O         30.9100   36.4350   34.9560 O.2   117  ILE117     -0.2718
    108  CB        33.2640   36.7240   32.7130 C.3   117  ILE117      0.0266
    109  CG1       34.2810   35.7150   32.1660 C.3   117  ILE117      0.0019
    110  CG2       33.7010   37.2380   34.0710 C.3   117  ILE117      0.0020
    111  CD1       35.6490   36.2910   31.8660 C.3   117  ILE117      0.0001
    112  N         30.3550   37.8970   33.3690 N.am  118  TYR118     -0.1976
    113  CA        29.5080   38.6630   34.2760 C.3   118  TYR118      0.1639
    114  C         28.2020   37.9610   34.5870 C.2   118  TYR118      0.2290
    115  O         27.6640   38.0760   35.6870 O.2   118  TYR118     -0.2864
    116  CB        29.2790   40.0790   33.7310 C.3   118  TYR118      0.0560
    117  CG        30.5690   40.8470   33.7740 C.ar  118  TYR118     -0.0198
    118  CD1       31.2970   40.9280   34.9650 C.ar  118  TYR118     -0.0009
    119  CD2       31.1680   41.3100   32.6120 C.ar  118  TYR118     -0.0009
    120  CE1       32.6040   41.4210   34.9840 C.ar  118  TYR118      0.0417
    121  CE2       32.4700   41.8130   32.6150 C.ar  118  TYR118      0.0417
    122  CZ        33.1910   41.8560   33.8000 C.ar  118  TYR118      0.1957
    123  OH        34.5150   42.2530   33.7940 O.3   118  TYR118     -0.2866
    124  N         27.8110   34.7370   34.9210 N.3   120  MET120     -0.1230
    125  CA        28.0910   33.7290   35.9350 C.3   120  MET120      0.1702
    126  C         28.5750   34.3080   37.2410 C.2   120  MET120      0.2592
    127  O         28.3090   33.7600   38.3040 O.2   120  MET120     -0.2718
    128  CB        29.0890   32.7260   35.3950 C.3   120  MET120      0.0401
    129  CG        28.5690   32.0530   34.1480 C.3   120  MET120      0.0596
    130  SD        29.6070   30.7360   33.6230 S.3   120  MET120     -0.1393
    131  CE        28.8140   29.4120   34.5320 C.3   120  MET120      0.0692
    132  N         29.2690   35.4310   37.1570 N.am  121  LEU121     -0.1980
    133  CA        29.7520   36.0860   38.3510 C.3   121  LEU121      0.1596
    134  C         28.5490   36.3680   39.2520 C.2   121  LEU121      0.2287
    135  O         28.6550   36.3740   40.4810 O.2   121  LEU121     -0.2864
    136  CB        30.4520   37.3940   37.9810 C.3   121  LEU121      0.0297
    137  CG        31.1450   38.0660   39.1600 C.3   121  LEU121      0.0022
    138  CD1       32.2100   37.1430   39.7100 C.3   121  LEU121      0.0001
    139  CD2       31.7510   39.3900   38.7220 C.3   121  LEU121      0.0001
    140  N         27.6540   33.8260   41.6240 N.3   124  LEU124     -0.1245
    141  CA        28.5240   33.8420   42.7920 C.3   124  LEU124      0.1561
    142  C         28.4160   35.0160   43.7650 C.2   124  LEU124      0.2260
    143  O         29.1150   35.0470   44.7820 O.2   124  LEU124     -0.2867
    144  CB        29.9760   33.6940   42.3360 C.3   124  LEU124      0.0270
    145  CG        30.4670   32.2750   42.0350 C.3   124  LEU124      0.0019
    146  CD1       29.4650   31.5060   41.2260 C.3   124  LEU124      0.0001
    147  CD2       31.7870   32.3810   41.3170 C.3   124  LEU124      0.0001
    148  N         30.8040   38.7480   47.1320 N.3   130  VAL130     -0.1231
    149  CA        31.0920   37.7660   46.0970 C.3   130  VAL130      0.1692
    150  C         31.9350   36.6010   46.6010 C.2   130  VAL130      0.2592
    151  O         32.8730   36.7820   47.3800 O.2   130  VAL130     -0.2718
    152  CB        31.8160   38.4190   44.9080 C.3   130  VAL130      0.0266
    153  CG1       33.0180   39.2270   45.4070 C.3   130  VAL130      0.0020
    154  CG2       32.2590   37.3550   43.9140 C.3   130  VAL130      0.0020
    155  N         31.5730   35.4070   46.1350 N.am  131  LEU131     -0.1966
    156  CA        32.2270   34.1510   46.4750 C.3   131  LEU131      0.1728
    157  C         33.4750   34.0100   45.6460 C.2   131  LEU131      0.2616
    158  O         33.4220   34.0070   44.4170 O.2   131  LEU131     -0.2715
    159  CB        31.2960   32.9950   46.1660 C.3   131  LEU131      0.0311
    160  CG        31.0300   32.0300   47.3050 C.3   131  LEU131      0.0022
    161  CD1       30.6550   32.8110   48.5540 C.3   131  LEU131      0.0001
    162  CD2       29.9300   31.0700   46.9100 C.3   131  LEU131      0.0001
    163  N         34.6100   33.8890   46.3220 N.am  132  ILE132     -0.1963
    164  CA        35.8700   33.7650   45.6200 C.3   132  ILE132      0.1727
    165  C         36.5980   32.4610   45.8910 C.2   132  ILE132      0.2617
    166  O         36.2430   31.7200   46.8110 O.2   132  ILE132     -0.2715
    167  CB        36.7760   34.9770   45.9160 C.3   132  ILE132      0.0290
    168  CG1       36.9520   35.1750   47.4240 C.3   132  ILE132      0.0022
    169  CG2       36.1680   36.2220   45.2690 C.3   132  ILE132      0.0023
    170  CD1       38.0500   34.3400   48.0430 C.3   132  ILE132      0.0001
    171  N         37.6010   32.2000   45.0560 N.am  133  SER133     -0.1936
    172  CA        38.4360   30.9960   45.0680 C.3   133  SER133      0.2055
    173  C         37.7050   29.6720   45.2770 C.2   133  SER133      0.2642
    174  O         37.7870   29.0440   46.3340 O.2   133  SER133     -0.2714
    175  CB        39.5930   31.1210   46.0740 C.3   133  SER133      0.2130
    176  OG        39.1460   31.0580   47.4130 O.3   133  SER133     -0.2179
    177  N         36.9740   29.2640   44.2480 N.am  134  GLU134     -0.1976
    178  CA        36.2710   27.9890   44.2660 C.3   134  GLU134      0.1602
    179  C         35.0790   27.8960   45.2070 C.2   134  GLU134      0.2287
    180  O         34.2880   26.9610   45.1170 O.2   134  GLU134     -0.2864
    181  CB        37.2810   26.8820   44.5900 C.3   134  GLU134      0.0415
    182  CG        38.4690   26.8270   43.6090 C.3   134  GLU134      0.1163
    183  CD        39.6220   25.9680   44.1210 C.2   134  GLU134      0.3649
    184  OE1       39.3810   25.1890   45.0800 O.co2 134  GLU134     -0.2457
    185  OE2       40.7490   26.0740   43.5660 O.co2 134  GLU134     -0.2457
    186  N         34.4420   37.4420   49.5140 N.3   139  MET139     -0.1245
    187  CA        35.0370   38.7460   49.6700 C.3   139  MET139      0.1570
    188  C         33.8870   39.7240   49.7150 C.2   139  MET139      0.2261
    189  O         33.1990   39.9260   48.7290 O.2   139  MET139     -0.2867
    190  CB        35.9820   39.0640   48.5170 C.3   139  MET139      0.0387
    191  CG        36.9290   40.2240   48.8360 C.3   139  MET139      0.0595
    192  SD        38.1980   40.4260   47.6010 S.3   139  MET139     -0.1393
    193  CE        39.0560   38.8460   47.7830 C.3   139  MET139      0.0692
    194  N         35.3540   45.7230   49.0030 N.3   144  LEU144     -0.1245
    195  CA        35.6320   46.0470   47.6060 C.3   144  LEU144      0.1561
    196  C         35.5870   47.5510   47.3050 C.2   144  LEU144      0.2260
    197  O         36.4230   48.0560   46.5660 O.2   144  LEU144     -0.2867
    198  CB        34.6680   45.2850   46.6890 C.3   144  LEU144      0.0270
    199  CG        34.9210   43.7720   46.6960 C.3   144  LEU144      0.0019
    200  CD1       33.9380   43.0560   45.8030 C.3   144  LEU144      0.0001
    201  CD2       36.3520   43.4990   46.2330 C.3   144  LEU144      0.0001
    202  N         34.9970   49.6550   40.5640 N.3   154  PHE154     -0.1227
    203  CA        34.8910   48.7400   39.4400 C.3   154  PHE154      0.1736
    204  C         33.9970   47.5310   39.7470 C.2   154  PHE154      0.2595
    205  O         33.3260   46.9930   38.8490 O.2   154  PHE154     -0.2718
    206  CB        36.3260   48.3710   39.0040 C.3   154  PHE154      0.0547
    207  CG        36.5520   46.9180   38.6540 C.ar  154  PHE154     -0.0202
    208  CD1       35.8150   46.2790   37.6480 C.ar  154  PHE154     -0.0042
    209  CD2       37.5660   46.1980   39.3050 C.ar  154  PHE154     -0.0042
    210  CE1       36.0910   44.9370   37.3010 C.ar  154  PHE154     -0.0003
    211  CE2       37.8470   44.8570   38.9610 C.ar  154  PHE154     -0.0003
    212  CZ        37.1060   44.2290   37.9570 C.ar  154  PHE154     -0.0000
    213  N         33.9440   47.1200   41.0120 N.am  155  MET155     -0.1979
    214  CA        33.0970   45.9850   41.3870 C.3   155  MET155      0.1605
    215  C         31.6720   46.4030   41.7620 C.2   155  MET155      0.2287
    216  O         30.7530   45.5890   41.7220 O.2   155  MET155     -0.2864
    217  CB        33.7270   45.2010   42.5460 C.3   155  MET155      0.0413
    218  CG        34.8180   44.1960   42.1430 C.3   155  MET155      0.0598
    219  SD        34.2350   42.9070   40.9880 S.3   155  MET155     -0.1393
    220  CE        33.0300   42.0320   41.9930 C.3   155  MET155      0.0692
    221  N         28.9640   45.8350   38.8600 N.3   158  LYS158     -0.1245
    222  CA        28.5920   44.4240   38.7840 C.3   158  LYS158      0.1561
    223  C         27.6880   43.9600   39.9190 C.2   158  LYS158      0.2260
    224  O         26.8350   43.0950   39.7170 O.2   158  LYS158     -0.2867
    225  CB        29.8700   43.5920   38.7180 C.3   158  LYS158      0.0271
    226  CG        30.8610   44.2810   37.8080 C.3   158  LYS158      0.0035
    227  CD        32.0560   43.4460   37.4520 C.3   158  LYS158      0.0206
    228  CE        32.9670   44.2220   36.5160 C.3   158  LYS158      0.1093
    229  NZ        34.1120   43.3910   36.0490 N.3   158  LYS158     -0.1314
@<TRIPOS>BOND
     1    98    97    2
     2    97    96    1
     3    95    96    1
     4    96    99    1
     5    93    92    2
     6    11    10   ar
     7    11     9   ar
     8   104   105    1
     9    92    91    1
    10    10     8   ar
    11   111   109    1
    12    99   100    1
    13   109   108    1
    14     9     7   ar
    15    78    77    2
    16    84    83    2
    17   119   121   ar
    18   119   117   ar
    19   121   122   ar
    20   108   105    1
    21   108   110    1
    22   105   106    1
    23     8     6   ar
    24   100   101    1
    25    91    90    1
    26    91    94    1
    27    83    90   am
    28    83    82    1
    29    77    76    1
    30   112   106   am
    31   112   113    1
    32    81    82    1
    33   130   129    1
    34   130   131    1
    35   116   117    1
    36   116   113    1
    37     7     6   ar
    38   117   118   ar
    39   123   122    1
    40   122   120   ar
    41   106   107    2
    42    82    85    1
    43     6     5    1
    44   129   128    1
    45     1     2    1
    46    79    76    1
    47    79    80    1
    48   113   114    1
    49   101   102   ar
    50   101   103   ar
    51    76    75    1
    52   114   115    2
    53   124   125    1
    54   118   120   ar
    55     5     2    1
    56     2     3    1
    57    85    86    1
    58   128   125    1
    59    75    66   am
    60    67    66    2
    61    86    87    1
    62   125   126    1
    63   229   228    1
    64    66    65    1
    65   228   227    1
    66    73    72    1
    67     3     4    2
    68     3    12   am
    69   132   126   am
    70   132   133    1
    71    18    12    1
    72    18    17    1
    73    61    60    2
    74   126   127    2
    75   210   208   ar
    76   210   212   ar
    77    87    89   ar
    78    87    88   ar
    79   227   226    1
    80    12    13    1
    81    65    64    1
    82    65    68    1
    83    72    74    1
    84    72    71    2
    85   208   207   ar
    86    63    62    1
    87   226   225    1
    88    60    59    1
    89    17    16    1
    90   212   211   ar
    91   136   133    1
    92   136   137    1
    93    70    71    1
    94    70    69    1
    95   133   134    1
    96   207   206    1
    97   207   209   ar
    98   225   222    1
    99   139   137    1
   100    69    68    1
   101    13    16    1
   102    13    14    1
   103   222   221    1
   104   222   223    1
   105   205   204    2
   106   211   209   ar
   107   206   203    1
   108   137   138    1
   109    62    59    1
   110    59    58    1
   111   134   135    2
   112    22    21    2
   113   203   204    1
   114   203   202    1
   115    14    15    2
   116    14    19   am
   117   224   223    2
   118   204   213   am
   119    58    56   am
   120    57    56    2
   121    19    20    1
   122    21    20    1
   123    56    55    1
   124    54    55    1
   125   219   220    1
   126   219   218    1
   127   213   214    1
   128    20    23    1
   129   146   145    1
   130   147   145    1
   131   214   215    1
   132   214   217    1
   133    44    42    1
   134   140   141    1
   135    39    42    1
   136    39    38    1
   137    39    40    1
   138    23    24    1
   139   216   215    2
   140    42    43    1
   141    41    40    2
   142   145   144    1
   143   218   217    1
   144    49    48    2
   145   144   141    1
   146    48    47    1
   147   141   142    1
   148    24    26    1
   149    24    25    1
   150    43    45    1
   151   185   183   ar
   152   182   183    1
   153   182   181    1
   154   142   143    2
   155   154   152    1
   156   183   184   ar
   157   177   178    1
   158   177   173   am
   159    47    46    1
   160    47    50    1
   161   178   181    1
   162   178   179    1
   163   158   157    2
   164    30    29    2
   165   152   153    1
   166   152   149    1
   167   171   172    1
   168   171   165   am
   169   172   173    1
   170   172   175    1
   171    50    52    1
   172    50    51    1
   173   180   179    2
   174   169   167    1
   175   173   174    2
   176   164   165    1
   177   164   167    1
   178   164   163    1
   179   157   163   am
   180   157   156    1
   181   200   199    1
   182    29    28    1
   183   165   166    2
   184   167   168    1
   185   175   176    1
   186   149   150    1
   187   149   148    1
   188   155   156    1
   189   155   150   am
   190   159   156    1
   191   159   160    1
   192   201   199    1
   193    34    36   ar
   194    34    32   ar
   195    28    31    1
   196    28    27    1
   197    31    32    1
   198    51    53    1
   199   197   196    2
   200   150   151    2
   201   198   199    1
   202   198   195    1
   203   162   160    1
   204    36    37   ar
   205    32    33   ar
   206   196   195    1
   207   160   161    1
   208   168   170    1
   209   192   193    1
   210   192   191    1
   211   195   194    1
   212    37    35   ar
   213    33    35   ar
   214   190   191    1
   215   190   187    1
   216   189   188    2
   217   186   187    1
   218   187   188    1
