@<TRIPOS>MOLECULE
tmp/2zkcA00.pdb
 149 138 0 0 0
SMALL
GASTEIGER

@<TRIPOS>ATOM
      1  N        -23.2700   -4.0820  -25.2820 N.3    37  LEU37      -0.1231
      2  CA       -21.8040   -4.1470  -25.5370 C.3    37  LEU37       0.1693
      3  C        -20.9730   -3.4730  -24.4670 C.2    37  LEU37       0.2592
      4  O        -19.9370   -4.0280  -24.0380 O.2    37  LEU37      -0.2718
      5  CB       -21.4830   -3.5550  -26.9060 C.3    37  LEU37       0.0284
      6  CG       -21.9100   -4.4520  -28.0640 C.3    37  LEU37       0.0019
      7  CD1      -21.7090   -3.6910  -29.3780 C.3    37  LEU37       0.0001
      8  CD2      -21.1200   -5.7340  -28.0730 C.3    37  LEU37       0.0001
      9  N        -21.3900   -2.2820  -24.0290 N.am   38  CYS38      -0.1970
     10  CA       -20.6480   -1.5840  -22.9590 C.3    38  CYS38       0.1712
     11  C        -20.7730   -2.3050  -21.6250 C.2    38  CYS38       0.2296
     12  O        -19.8630   -2.2760  -20.8120 O.2    38  CYS38      -0.2864
     13  CB       -21.0970   -0.1320  -22.8320 C.3    38  CYS38       0.0983
     14  SG       -20.6310    0.8370  -24.2600 S.3    38  CYS38      -0.0798
     15  N        -21.1050   -5.6030  -21.3410 N.3    40  LEU40      -0.1231
     16  CA       -20.2370   -6.7620  -21.4930 C.3    40  LEU40       0.1693
     17  C        -18.8050   -6.3120  -21.2660 C.2    40  LEU40       0.2591
     18  O        -18.0690   -6.9770  -20.5230 O.2    40  LEU40      -0.2718
     19  CB       -20.3650   -7.3610  -22.9020 C.3    40  LEU40       0.0284
     20  CG       -19.4520   -8.5220  -23.2900 C.3    40  LEU40       0.0019
     21  CD1      -19.6690   -9.7770  -22.4010 C.3    40  LEU40       0.0001
     22  CD2      -19.6380   -8.9120  -24.7570 C.3    40  LEU40       0.0001
     23  N        -18.3890   -5.2250  -21.9250 N.am   41  ALA41      -0.1980
     24  CA       -17.0160   -4.6840  -21.6960 C.3    41  ALA41       0.1597
     25  C        -16.7230   -4.4180  -20.2140 C.2    41  ALA41       0.2287
     26  O        -15.6550   -4.7720  -19.7090 O.2    41  ALA41      -0.2864
     27  CB       -16.7750   -3.4270  -22.5240 C.3    41  ALA41       0.0319
     28  N        -16.0670   -7.7000  -18.5690 N.3    44  GLU44      -0.1245
     29  CA       -14.7930   -8.2310  -19.0450 C.3    44  GLU44       0.1567
     30  C        -13.6180   -7.4920  -18.4430 C.2    44  GLU44       0.2260
     31  O        -12.5800   -8.1110  -18.2020 O.2    44  GLU44      -0.2867
     32  CB       -14.7080   -8.1490  -20.5560 C.3    44  GLU44       0.0388
     33  CG       -15.5850   -9.1560  -21.2440 C.3    44  GLU44       0.1160
     34  CD       -15.0980   -9.4260  -22.6260 C.2    44  GLU44       0.3649
     35  OE1      -13.9060   -9.7890  -22.7550 O.co2  44  GLU44      -0.2457
     36  OE2      -15.8930   -9.2730  -23.5720 O.co2  44  GLU44      -0.2457
     37  N         -8.5640   -1.8650  -24.1840 N.3    75  MET75      -0.1245
     38  CA        -9.3330   -1.9870  -25.4220 C.3    75  MET75       0.1570
     39  C         -8.6780   -3.0060  -26.3560 C.2    75  MET75       0.2261
     40  O         -9.3580   -3.8140  -27.0060 O.2    75  MET75      -0.2867
     41  CB        -9.4830   -0.6230  -26.0970 C.3    75  MET75       0.0387
     42  CG       -10.2970   -0.6850  -27.3680 C.3    75  MET75       0.0595
     43  SD       -12.0560   -1.0450  -27.1330 S.3    75  MET75      -0.1393
     44  CE       -12.5650    0.6230  -26.7130 C.3    75  MET75       0.0692
     45  N         -9.5370   -6.4530  -25.0020 N.3    78  LEU78      -0.1231
     46  CA       -10.9450   -6.7960  -25.3110 C.3    78  LEU78       0.1693
     47  C        -11.0640   -7.1730  -26.7950 C.2    78  LEU78       0.2591
     48  O        -11.6460   -8.1930  -27.1450 O.2    78  LEU78      -0.2718
     49  CB       -11.8420   -5.6110  -24.9980 C.3    78  LEU78       0.0284
     50  CG       -12.1400   -5.2690  -23.5380 C.3    78  LEU78       0.0019
     51  CD1      -13.0340   -4.0580  -23.5130 C.3    78  LEU78       0.0001
     52  CD2      -12.8360   -6.4700  -22.8710 C.3    78  LEU78       0.0001
     53  N        -10.4700   -6.3560  -27.6760 N.am   79  ILE79      -0.1980
     54  CA       -10.5990   -6.6050  -29.1130 C.3    79  ILE79       0.1595
     55  C         -9.9240   -7.9330  -29.5180 C.2    79  ILE79       0.2287
     56  O        -10.4700   -8.7280  -30.2810 O.2    79  ILE79      -0.2864
     57  CB       -10.0970   -5.3830  -29.9330 C.3    79  ILE79       0.0276
     58  CG1      -11.0820   -4.2120  -29.7300 C.3    79  ILE79       0.0022
     59  CG2       -9.9630   -5.7740  -31.4260 C.3    79  ILE79       0.0022
     60  CD1      -10.6620   -2.8920  -30.4240 C.3    79  ILE79       0.0001
     61  N        -12.4490  -10.7950  -28.8540 N.3    82  VAL82      -0.1245
     62  CA       -13.5110  -11.0050  -29.8520 C.3    82  VAL82       0.1561
     63  C        -12.9620  -11.4920  -31.2070 C.2    82  VAL82       0.2260
     64  O        -13.6080  -12.2700  -31.9050 O.2    82  VAL82      -0.2867
     65  CB       -14.4480   -9.7800  -29.9970 C.3    82  VAL82       0.0252
     66  CG1      -13.6960   -8.5590  -30.5220 C.3    82  VAL82       0.0019
     67  CG2      -15.6520  -10.1050  -30.8900 C.3    82  VAL82       0.0019
     68  N        -12.3120  -15.2340  -30.7130 N.3    85  ARG85      -0.1245
     69  CA       -13.5470  -16.0110  -30.6300 C.3    85  ARG85       0.1563
     70  C        -14.2070  -16.1200  -31.9890 C.2    85  ARG85       0.2260
     71  O        -15.0530  -16.9940  -32.1990 O.2    85  ARG85      -0.2867
     72  CB       -14.5190  -15.3790  -29.6600 C.3    85  ARG85       0.0307
     73  CG       -14.0410  -15.4620  -28.2030 C.3    85  ARG85       0.0489
     74  CD       -15.1410  -15.0150  -27.2540 C.3    85  ARG85       0.2205
     75  NE       -15.4510  -13.5810  -27.3140 N.pl3  85  ARG85      -0.0865
     76  CZ       -14.7960  -12.5980  -26.6890 C.cat  85  ARG85       0.5346
     77  NH1      -13.6840  -12.8250  -25.9680 N.pl3  85  ARG85       0.1354
     78  NH2      -15.2510  -11.3490  -26.8160 N.pl3  85  ARG85       0.1354
     79  N        -18.8360  -11.5610  -29.9910 N.3    95  TYR95      -0.1241
     80  CA       -18.6340  -10.8200  -28.7340 C.3    95  TYR95       0.1605
     81  C        -18.8430  -11.7420  -27.5350 C.2    95  TYR95       0.2264
     82  O        -18.1140  -11.6760  -26.5540 O.2    95  TYR95      -0.2867
     83  CB       -19.5160   -9.5720  -28.6600 C.3    95  TYR95       0.0534
     84  CG       -18.9860   -8.5020  -29.5820 C.ar   95  TYR95      -0.0201
     85  CD1      -19.4490   -8.3880  -30.8860 C.ar   95  TYR95      -0.0009
     86  CD2      -17.9670   -7.6550  -29.1600 C.ar   95  TYR95      -0.0009
     87  CE1      -18.9270   -7.4250  -31.7300 C.ar   95  TYR95       0.0417
     88  CE2      -17.4270   -6.6930  -30.0070 C.ar   95  TYR95       0.0417
     89  CZ       -17.9260   -6.5860  -31.2810 C.ar   95  TYR95       0.1957
     90  OH       -17.3820   -5.6380  -32.1230 O.3    95  TYR95      -0.2866
     91  N        -21.7420    0.6370  -35.8950 N.3   111  LEU111     -0.1245
     92  CA       -20.3810    0.1130  -35.7640 C.3   111  LEU111      0.1561
     93  C        -19.8330   -0.5540  -37.0220 C.2   111  LEU111      0.2260
     94  O        -18.8840   -1.3390  -36.9290 O.2   111  LEU111     -0.2867
     95  CB       -20.3300   -0.9110  -34.6060 C.3   111  LEU111      0.0270
     96  CG       -20.7470   -0.4090  -33.2290 C.3   111  LEU111      0.0019
     97  CD1      -20.9020   -1.5870  -32.2420 C.3   111  LEU111      0.0001
     98  CD2      -19.7700    0.6290  -32.7040 C.3   111  LEU111      0.0001
     99  N        -16.0390    0.2590  -37.6320 N.3   114  LEU114     -0.1231
    100  CA       -15.2220   -0.2570  -36.5470 C.3   114  LEU114      0.1693
    101  C        -15.1850   -1.7740  -36.6110 C.2   114  LEU114      0.2592
    102  O        -14.1200   -2.3880  -36.6020 O.2   114  LEU114     -0.2718
    103  CB       -15.8380    0.1830  -35.2330 C.3   114  LEU114      0.0284
    104  CG       -14.9490    0.2480  -34.0140 C.3   114  LEU114      0.0019
    105  CD1      -13.5500    0.8420  -34.3630 C.3   114  LEU114      0.0001
    106  CD2      -15.7030    1.1130  -33.0030 C.3   114  LEU114      0.0001
    107  N        -16.3560   -2.3790  -36.7140 N.am  115  ASN115     -0.1974
    108  CA       -16.4290   -3.8360  -36.8320 C.3   115  ASN115      0.1688
    109  C        -15.7500   -4.3640  -38.0890 C.2   115  ASN115      0.2292
    110  O        -15.1760   -5.4460  -38.0900 O.2   115  ASN115     -0.2864
    111  CB       -17.8730   -4.3180  -36.6980 C.3   115  ASN115      0.1181
    112  CG       -18.2970   -4.4420  -35.2310 C.2   115  ASN115      0.2629
    113  OD1      -17.4990   -4.1950  -34.3390 O.2   115  ASN115     -0.2716
    114  ND2      -19.5390   -4.8050  -34.9900 N.am  115  ASN115     -0.0877
    115  N        -12.1740   -4.7320  -37.1540 N.3   118  ILE118     -0.1245
    116  CA       -12.0050   -5.9410  -36.3710 C.3   118  ILE118      0.1561
    117  C        -12.0260   -7.1680  -37.2810 C.2   118  ILE118      0.2260
    118  O        -11.2470   -8.0820  -37.1100 O.2   118  ILE118     -0.2867
    119  CB       -13.0490   -6.0200  -35.2300 C.3   118  ILE118      0.0252
    120  CG1      -12.9040   -4.7760  -34.3260 C.3   118  ILE118      0.0019
    121  CG2      -12.9160   -7.3540  -34.4250 C.3   118  ILE118      0.0019
    122  CD1      -13.9090   -4.7200  -33.1260 C.3   118  ILE118      0.0001
    123  N        -11.5890    2.6870  -31.7260 N.3   200  ALA200     -0.1245
    124  CA       -12.6920    2.2380  -30.8700 C.3   200  ALA200      0.1562
    125  C        -12.8150    3.1210  -29.6310 C.2   200  ALA200      0.2260
    126  O        -13.9240    3.4560  -29.2110 O.2   200  ALA200     -0.2867
    127  CB       -12.5120    0.7860  -30.4680 C.3   200  ALA200      0.0290
    128  N        -16.2450    5.3020  -28.7350 N.3   204  PHE204     -0.1241
    129  CA       -17.0210    5.1500  -27.5210 C.3   204  PHE204      0.1605
    130  C        -16.9030    6.3350  -26.5930 C.2   204  PHE204      0.2264
    131  O        -17.7930    6.5790  -25.7890 O.2   204  PHE204     -0.2867
    132  CB       -16.7760    3.8000  -26.8500 C.3   204  PHE204      0.0534
    133  CG       -17.4510    2.6920  -27.5690 C.ar  204  PHE204     -0.0203
    134  CD1      -16.8050    2.0130  -28.6080 C.ar  204  PHE204     -0.0042
    135  CD2      -18.7770    2.3790  -27.2760 C.ar  204  PHE204     -0.0042
    136  CE1      -17.4670    1.0140  -29.3210 C.ar  204  PHE204     -0.0003
    137  CE2      -19.4390    1.4000  -27.9860 C.ar  204  PHE204     -0.0003
    138  CZ       -18.7850    0.7160  -29.0130 C.ar  204  PHE204     -0.0000
    139  N        -15.8990    0.7640  -16.6440 N.3   219  PHE219     -0.1241
    140  CA       -15.7830    1.0560  -18.0730 C.3   219  PHE219      0.1605
    141  C        -15.5610    2.5530  -18.2830 C.2   219  PHE219      0.2264
    142  O        -14.6900    2.9550  -19.0500 O.2   219  PHE219     -0.2867
    143  CB       -17.0230    0.5600  -18.8400 C.3   219  PHE219      0.0534
    144  CG       -16.9910    0.8740  -20.3150 C.ar  219  PHE219     -0.0203
    145  CD1      -16.2450    0.0900  -21.1880 C.ar  219  PHE219     -0.0042
    146  CD2      -17.6960    1.9610  -20.8320 C.ar  219  PHE219     -0.0042
    147  CE1      -16.1930    0.3780  -22.5470 C.ar  219  PHE219     -0.0003
    148  CE2      -17.6530    2.2520  -22.1940 C.ar  219  PHE219     -0.0003
    149  CZ       -16.9000    1.4500  -23.0590 C.ar  219  PHE219     -0.0000
@<TRIPOS>BOND
     1   110   109    2
     2   109   108    1
     3    99   100    1
     4   117   118    2
     5   117   116    1
     6   115   116    1
     7    93    94    2
     8    93    92    1
     9   108   107    1
    10   108   111    1
    11   107   101   am
    12   111   112    1
    13   101   102    2
    14   101   100    1
    15   100   103    1
    16   116   119    1
    17    91    92    1
    18    92    95    1
    19   103   104    1
    20   112   114   am
    21   112   113    2
    22   119   121    1
    23   119   120    1
    24    95    96    1
    25   105   104    1
    26   120   122    1
    27   104   106    1
    28    96    98    1
    29    96    97    1
    30    71    70    2
    31    90    89    1
    32    70    69    1
    33    64    63    2
    34    87    89   ar
    35    87    85   ar
    36   123   124    1
    37    59    57    1
    38    89    88   ar
    39    63    62    1
    40    67    65    1
    41    85    84   ar
    42   124   127    1
    43   124   125    1
    44    68    69    1
    45    69    72    1
    46    66    65    1
    47    60    58    1
    48    56    55    2
    49    88    86   ar
    50    65    62    1
    51    79    80    1
    52    57    58    1
    53    57    54    1
    54    62    61    1
    55    72    73    1
    56   125   126    2
    57    84    86   ar
    58    84    83    1
    59    55    54    1
    60     7     6    1
    61   136   138   ar
    62   136   134   ar
    63    54    53    1
    64   138   137   ar
    65   128   129    1
    66    80    83    1
    67    80    81    1
    68   134   133   ar
    69    73    74    1
    70     8     6    1
    71     6     5    1
    72   137   135   ar
    73    53    47   am
    74   133   135   ar
    75   133   132    1
    76    81    82    2
    77   129   132    1
    78   129   130    1
    79    42    43    1
    80    42    41    1
    81    75    74    1
    82    75    76    2
    83    48    47    2
    84    43    44    1
    85    40    39    2
    86     5     2    1
    87    78    76    1
    88    47    46    1
    89    76    77    1
    90   130   131    2
    91    39    38    1
    92    41    38    1
    93     2     1    1
    94     2     3    1
    95    38    37    1
    96    46    45    1
    97    46    49    1
    98    49    50    1
    99    22    20    1
   100     3     4    2
   101     3     9   am
   102    14    13    1
   103     9    10    1
   104    36    34   ar
   105    50    51    1
   106    50    52    1
   107    20    19    1
   108    20    21    1
   109   149   147   ar
   110   149   148   ar
   111    10    13    1
   112    10    11    1
   113    19    16    1
   114    35    34   ar
   115    34    33    1
   116   147   145   ar
   117    27    24    1
   118   148   146   ar
   119    23    24    1
   120    23    17   am
   121    24    25    1
   122    11    12    2
   123    16    15    1
   124    16    17    1
   125    17    18    2
   126    33    32    1
   127   145   144   ar
   128   146   144   ar
   129    32    29    1
   130   144   143    1
   131    25    26    2
   132   142   141    2
   133    29    28    1
   134    29    30    1
   135   143   140    1
   136    30    31    2
   137   141   140    1
   138   140   139    1
