@<TRIPOS>MOLECULE
tmp/2zksA00.pdb
 195 192 0 0 0
SMALL
GASTEIGER

@<TRIPOS>ATOM
      1  N        -25.4910  -17.4210   28.0910 N.3    25  LEU25      -0.1231
      2  CA       -26.2320  -17.9190   26.9180 C.3    25  LEU25       0.1693
      3  C        -25.5480  -17.6830   25.5950 C.2    25  LEU25       0.2592
      4  O        -25.5180  -18.5610   24.7530 O.2    25  LEU25      -0.2718
      5  CB       -27.6050  -17.2720   26.8090 C.3    25  LEU25       0.0284
      6  CG       -28.6170  -17.5650   27.9030 C.3    25  LEU25       0.0019
      7  CD1      -29.8960  -16.8290   27.6100 C.3    25  LEU25       0.0001
      8  CD2      -28.8630  -19.0710   28.1000 C.3    25  LEU25       0.0001
      9  N        -25.0560  -16.4750   25.3690 N.am   26  CYS26      -0.1970
     10  CA       -24.4410  -16.1370   24.0970 C.3    26  CYS26       0.1712
     11  C        -23.4860  -15.0340   24.3400 C.2    26  CYS26       0.2296
     12  O        -23.6360  -14.3090   25.2920 O.2    26  CYS26      -0.2864
     13  CB       -25.4650  -15.5530   23.1620 C.3    26  CYS26       0.0983
     14  SG       -26.7940  -16.6320   22.7510 S.3    26  CYS26      -0.0798
     15  N        -31.2880  -15.0940   17.6010 N.3    41  HIS41      -0.1226
     16  CA       -31.9050  -16.3570   18.0630 C.3    41  HIS41       0.1752
     17  C        -31.6390  -16.5780   19.5400 C.2    41  HIS41       0.2596
     18  O        -32.2600  -17.4530   20.1400 O.2    41  HIS41      -0.2718
     19  CB       -31.4170  -17.5570   17.2820 C.3    41  HIS41       0.0759
     20  CG       -30.0280  -17.9540   17.6380 C.ar   41  HIS41       0.0818
     21  ND1      -28.9340  -17.5250   16.9190 N.ar   41  HIS41      -0.2268
     22  CD2      -29.5480  -18.6970   18.6670 C.ar   41  HIS41       0.1154
     23  CE1      -27.8350  -17.9850   17.4930 C.ar   41  HIS41       0.1986
     24  NE2      -28.1790  -18.7090   18.5510 N.ar   41  HIS41      -0.2212
     25  N        -30.7150  -15.7830   20.0920 N.am   42  CYS42      -0.1970
     26  CA       -30.3240  -15.8040   21.4980 C.3    42  CYS42       0.1712
     27  C        -31.4100  -15.2680   22.4200 C.2    42  CYS42       0.2296
     28  O        -31.3830  -15.5070   23.6370 O.2    42  CYS42      -0.2864
     29  CB       -29.0740  -14.9620   21.7010 C.3    42  CYS42       0.0983
     30  SG       -27.5940  -15.7330   21.0530 S.3    42  CYS42      -0.0798
     31  N        -35.5220  -20.4320   12.6670 N.3    80  VAL80      -0.1231
     32  CA       -35.4120  -21.7160   11.9740 C.3    80  VAL80       0.1678
     33  C        -36.7710  -22.1950   11.4610 C.2    80  VAL80       0.2434
     34  O        -37.8060  -21.9230   12.0970 O.2    80  VAL80      -0.2733
     35  CB       -34.7970  -22.7870   12.8930 C.3    80  VAL80       0.0265
     36  CG1      -33.2950  -22.4960   13.1210 C.3    80  VAL80       0.0020
     37  CG2      -35.5780  -22.8340   14.2240 C.3    80  VAL80       0.0020
     38  N        -36.7910  -22.9020   10.3080 N.am   81  PRO81      -0.2718
     39  CA       -35.6940  -23.3110    9.4220 C.3    81  PRO81       0.1535
     40  C        -35.0020  -22.1780    8.6370 C.2    81  PRO81       0.2598
     41  O        -33.8510  -22.3740    8.1700 O.2    81  PRO81      -0.2715
     42  CB       -36.3780  -24.2760    8.4370 C.3    81  PRO81       0.0310
     43  CG       -37.7300  -24.5970    9.0540 C.3    81  PRO81       0.0237
     44  CD       -38.0940  -23.3820    9.8050 C.3    81  PRO81       0.0939
     45  N        -35.6740  -21.0240    8.4780 N.am   82  ALA82      -0.1964
     46  CA       -35.0660  -19.8510    7.8010 C.3    82  ALA82       0.1728
     47  C        -33.7960  -19.4220    8.4930 C.2    82  ALA82       0.2616
     48  O        -32.7130  -19.5670    7.9460 O.2    82  ALA82      -0.2715
     49  CB       -36.0190  -18.6930    7.6990 C.3    82  ALA82       0.0334
     50  N        -33.8970  -18.9720    9.7280 N.am   83  LEU83      -0.1977
     51  CA       -32.7450  -18.3470   10.3730 C.3    83  LEU83       0.1596
     52  C        -32.1640  -17.3730    9.3760 C.2    83  LEU83       0.2287
     53  O        -31.0800  -17.6140    8.7880 O.2    83  LEU83      -0.2864
     54  CB       -31.6850  -19.3460   10.7950 C.3    83  LEU83       0.0297
     55  CG       -30.7290  -18.7620   11.8340 C.3    83  LEU83       0.0022
     56  CD1      -31.5340  -17.9860   12.8820 C.3    83  LEU83       0.0001
     57  CD2      -29.9620  -19.9020   12.4820 C.3    83  LEU83       0.0001
     58  N        -23.7930  -26.7940    3.0190 N.3   157  TRP157     -0.1241
     59  CA       -25.0200  -26.0880    3.3560 C.3   157  TRP157      0.1605
     60  C        -26.1000  -26.1840    2.2710 C.2   157  TRP157      0.2264
     61  O        -27.1520  -25.5440    2.3350 O.2   157  TRP157     -0.2867
     62  CB       -24.6940  -24.6610    3.7520 C.3   157  TRP157      0.0550
     63  CG       -24.2610  -24.6460    5.1380 C.ar  157  TRP157      0.0003
     64  CD1      -23.0410  -24.2650    5.6290 C.ar  157  TRP157      0.0946
     65  CD2      -25.0220  -25.1020    6.2550 C.ar  157  TRP157      0.0152
     66  NE1      -23.0050  -24.4280    6.9990 N.ar  157  TRP157     -0.2442
     67  CE2      -24.2100  -24.9320    7.4110 C.ar  157  TRP157      0.0810
     68  CE3      -26.3390  -25.6050    6.4020 C.ar  157  TRP157      0.0012
     69  CZ2      -24.6580  -25.2730    8.7040 C.ar  157  TRP157      0.0191
     70  CZ3      -26.8010  -25.9400    7.6940 C.ar  157  TRP157      0.0001
     71  CH2      -25.9590  -25.7670    8.8300 C.ar  157  TRP157      0.0015
     72  N        -28.3430  -23.0510    0.9920 N.3   160  SER160     -0.1202
     73  CA       -29.2020  -22.2650    1.8550 C.3   160  SER160      0.2020
     74  C        -28.5430  -21.0630    2.5040 C.2   160  SER160      0.2618
     75  O        -29.1530  -20.4340    3.3470 O.2   160  SER160     -0.2717
     76  CB       -29.7870  -23.1750    2.9320 C.3   160  SER160      0.2103
     77  OG       -28.7650  -23.8540    3.6510 O.3   160  SER160     -0.2182
     78  N        -27.2950  -20.7770    2.1400 N.am  161  LEU161     -0.1979
     79  CA       -26.5660  -19.6300    2.6500 C.3   161  LEU161      0.1596
     80  C        -26.8030  -18.4810    1.6960 C.2   161  LEU161      0.2287
     81  O        -26.6000  -18.6420    0.4940 O.2   161  LEU161     -0.2864
     82  CB       -25.0730  -19.9300    2.7090 C.3   161  LEU161      0.0297
     83  CG       -24.5540  -21.0220    3.6570 C.3   161  LEU161      0.0022
     84  CD1      -23.0830  -20.7560    4.0090 C.3   161  LEU161      0.0001
     85  CD2      -25.3980  -21.0980    4.9290 C.3   161  LEU161      0.0001
     86  N        -24.3070  -13.9130    4.5330 N.3   165  MET165     -0.1245
     87  CA       -23.7190  -14.8870    5.4480 C.3   165  MET165      0.1570
     88  C        -22.3390  -15.2420    5.0400 C.2   165  MET165      0.2261
     89  O        -22.0590  -15.3240    3.8640 O.2   165  MET165     -0.2867
     90  CB       -24.5780  -16.1200    5.5420 C.3   165  MET165      0.0387
     91  CG       -25.8040  -15.8410    6.3880 C.3   165  MET165      0.0595
     92  SD       -26.9830  -17.0280    5.7690 S.3   165  MET165     -0.1393
     93  CE       -28.5790  -16.3260    6.3150 C.3   165  MET165      0.0692
     94  N        -16.6020  -23.1480   16.9520 N.3   177  PRO177     -0.2102
     95  CA       -17.4350  -22.5310   17.9580 C.3   177  PRO177      0.1504
     96  C        -18.5730  -23.4760   18.2440 C.2   177  PRO177      0.2576
     97  O        -18.8260  -24.3890   17.4500 O.2   177  PRO177     -0.2718
     98  CB       -17.9790  -21.3040   17.2630 C.3   177  PRO177      0.0282
     99  CG       -17.8060  -21.5510   15.8260 C.3   177  PRO177      0.0208
    100  CD       -16.5710  -22.3690   15.7150 C.3   177  PRO177      0.0893
    101  N        -19.2660  -23.2750   19.3580 N.am  178  CYS178     -0.1957
    102  CA       -20.2000  -24.2880   19.8280 C.3   178  CYS178      0.1843
    103  C        -21.2150  -23.6410   20.7330 C.2   178  CYS178      0.2625
    104  O        -21.1500  -22.4360   20.9720 O.2   178  CYS178     -0.2714
    105  CB       -19.4330  -25.3640   20.5790 C.3   178  CYS178      0.0997
    106  SG       -20.2400  -26.9460   20.5430 S.3   178  CYS178     -0.0797
    107  N        -22.1510  -24.4330   21.2430 N.am  179  LYS179     -0.1963
    108  CA       -23.2270  -23.8920   22.0630 C.3   179  LYS179      0.1728
    109  C        -22.6860  -22.7980   22.9920 C.2   179  LYS179      0.2616
    110  O        -21.6860  -22.9900   23.6670 O.2   179  LYS179     -0.2715
    111  CB       -23.9070  -25.0120   22.8510 C.3   179  LYS179      0.0311
    112  CG       -25.3060  -24.6190   23.2850 C.3   179  LYS179      0.0038
    113  CD       -25.9900  -25.7120   24.1170 C.3   179  LYS179      0.0206
    114  CE       -27.1240  -25.1440   25.0420 C.3   179  LYS179      0.1093
    115  NZ       -27.5730  -26.2580   25.9540 N.3   179  LYS179     -0.1314
    116  N        -23.3260  -21.6440   22.9970 N.am  180  GLY180     -0.1955
    117  CA       -22.8840  -20.5350   23.8150 C.3   180  GLY180      0.1869
    118  C        -22.0920  -19.4510   23.1060 C.2   180  GLY180      0.2309
    119  O        -21.9160  -18.3610   23.6670 O.2   180  GLY180     -0.2863
    120  N        -22.6780  -18.0880   19.7870 N.3   182  SER182     -0.1217
    121  CA       -23.4150  -17.1540   18.9250 C.3   182  SER182      0.1889
    122  C        -23.4110  -15.7730   19.5040 C.2   182  SER182      0.2288
    123  O        -23.4330  -15.6200   20.7170 O.2   182  SER182     -0.2866
    124  CB       -24.8770  -17.5490   18.7870 C.3   182  SER182      0.2089
    125  OG       -25.0620  -18.9330   18.9820 O.3   182  SER182     -0.2183
    126  N        -21.4290  -14.4910   14.9720 N.3   198  LEU198     -0.1231
    127  CA       -21.8050  -15.9220   14.8450 C.3   198  LEU198      0.1693
    128  C        -23.3030  -16.2200   14.9600 C.2   198  LEU198      0.2593
    129  O        -23.9960  -15.6180   15.8030 O.2   198  LEU198     -0.2718
    130  CB       -21.0230  -16.8400   15.8090 C.3   198  LEU198      0.0284
    131  CG       -21.2100  -18.3960   15.6450 C.3   198  LEU198      0.0019
    132  CD1      -20.4760  -19.0140   14.3930 C.3   198  LEU198      0.0001
    133  CD2      -20.9530  -19.2380   16.9170 C.3   198  LEU198      0.0001
    134  N        -23.7870  -17.1710   14.1430 N.am  199  SER199     -0.1938
    135  CA       -25.2280  -17.4780   14.0610 C.3   199  SER199      0.2055
    136  C        -25.6230  -18.9490   14.3320 C.2   199  SER199      0.2643
    137  O        -26.4820  -19.2390   15.1400 O.2   199  SER199     -0.2714
    138  CB       -25.7520  -17.0100   12.6950 C.3   199  SER199      0.2130
    139  OG       -27.1270  -17.3090   12.4690 O.3   199  SER199     -0.2179
    140  N        -24.9990  -19.8830   13.6420 N.am  200  PHE200     -0.1959
    141  CA       -25.4130  -21.2750   13.7140 C.3   200  PHE200      0.1771
    142  C        -24.3990  -22.2210   13.0810 C.2   200  PHE200      0.2620
    143  O        -23.4070  -21.8000   12.4580 O.2   200  PHE200     -0.2715
    144  CB       -26.7830  -21.4700   13.0250 C.3   200  PHE200      0.0574
    145  CG       -26.7460  -21.3310   11.5170 C.ar  200  PHE200     -0.0200
    146  CD1      -27.0030  -20.1040   10.9080 C.ar  200  PHE200     -0.0042
    147  CD2      -26.4530  -22.4130   10.7130 C.ar  200  PHE200     -0.0042
    148  CE1      -26.9700  -19.9600    9.5050 C.ar  200  PHE200     -0.0003
    149  CE2      -26.4000  -22.2890    9.3170 C.ar  200  PHE200     -0.0003
    150  CZ       -26.6610  -21.0590    8.7050 C.ar  200  PHE200     -0.0000
    151  N        -24.6990  -23.5120   13.2240 N.am  201  SER201     -0.1936
    152  CA       -23.8570  -24.6310   12.7680 C.3   201  SER201      0.2055
    153  C        -24.8610  -25.7340   12.5510 C.2   201  SER201      0.2644
    154  O        -26.0250  -25.4480   12.2380 O.2   201  SER201     -0.2714
    155  CB       -22.8840  -25.0760   13.8810 C.3   201  SER201      0.2130
    156  OG       -23.6080  -25.6850   14.9620 O.3   201  SER201     -0.2179
    157  N        -24.4320  -26.9920   12.7480 N.am  202  SER202     -0.1935
    158  CA       -25.3910  -28.0910   12.9540 C.3   202  SER202      0.2055
    159  C        -25.2290  -28.6010   14.4020 C.2   202  SER202      0.2642
    160  O        -24.5060  -27.9670   15.2100 O.2   202  SER202     -0.2714
    161  CB       -25.3230  -29.1690   11.8480 C.3   202  SER202      0.2130
    162  OG       -24.2010  -30.0120   11.9730 O.3   202  SER202     -0.2179
    163  N        -25.9250  -29.6860   14.7560 N.am  203  ARG203     -0.1977
    164  CA       -26.0140  -30.0770   16.1660 C.3   203  ARG203      0.1597
    165  C        -24.6490  -30.5300   16.7080 C.2   203  ARG203      0.2287
    166  O        -24.2970  -30.2990   17.8670 O.2   203  ARG203     -0.2864
    167  CB       -27.0800  -31.1640   16.3380 C.3   203  ARG203      0.0334
    168  CG       -27.6530  -31.2660   17.7460 C.3   203  ARG203      0.0492
    169  CD       -28.5270  -32.4920   17.8420 C.3   203  ARG203      0.2205
    170  NE       -27.7830  -33.7340   17.6050 N.pl3 203  ARG203     -0.0865
    171  CZ       -26.8400  -34.2240   18.4200 C.cat 203  ARG203      0.5346
    172  NH1      -26.4830  -33.5500   19.5210 N.pl3 203  ARG203      0.1354
    173  NH2      -26.2320  -35.3680   18.1250 N.pl3 203  ARG203      0.1354
    174  N        -21.0150  -29.8140   16.7180 N.3   205  CYS205     -0.1235
    175  CA       -20.3280  -28.5340   16.4540 C.3   205  CYS205      0.1677
    176  C        -19.2630  -28.6450   15.4240 C.2   205  CYS205      0.2270
    177  O        -19.1660  -27.7460   14.5640 O.2   205  CYS205     -0.2867
    178  CB       -19.7390  -27.9220   17.7070 C.3   205  CYS205      0.0956
    179  SG       -21.0250  -27.0910   18.6580 S.3   205  CYS205     -0.0801
    180  N        -20.7980  -29.0680    7.6920 N.3   210  LYS210     -0.1245
    181  CA       -21.6440  -27.9710    8.1350 C.3   210  LYS210      0.1561
    182  C        -20.8120  -26.8990    8.8500 C.2   210  LYS210      0.2260
    183  O        -20.9150  -26.6920   10.0800 O.2   210  LYS210     -0.2867
    184  CB       -22.7900  -28.4730    9.0340 C.3   210  LYS210      0.0271
    185  CG       -23.8010  -29.4150    8.3500 C.3   210  LYS210      0.0035
    186  CD       -24.6550  -28.7200    7.2850 C.3   210  LYS210      0.0206
    187  CE       -25.5790  -29.7190    6.5990 C.3   210  LYS210      0.1093
    188  NZ       -24.8440  -30.6240    5.6430 N.3   210  LYS210     -0.1314
    189  N        -19.2440  -23.5320   10.3810 N.3   212  PRO212     -0.2116
    190  CA       -19.9840  -22.5110   11.1340 C.3   212  PRO212      0.1372
    191  C        -20.1920  -21.3180   10.2550 C.2   212  PRO212      0.2244
    192  O        -19.4460  -21.1290    9.3320 O.2   212  PRO212     -0.2868
    193  CB       -19.0440  -22.1450   12.2750 C.3   212  PRO212      0.0268
    194  CG       -18.0450  -23.2530   12.2970 C.3   212  PRO212      0.0207
    195  CD       -17.8800  -23.7030   10.8850 C.3   212  PRO212      0.0892
@<TRIPOS>BOND
     1    81    80    2
     2    72    73    1
     3    80    79    1
     4    73    74    1
     5    73    76    1
     6    78    74   am
     7    78    79    1
     8    60    61    2
     9    60    59    1
    10    74    75    2
    11    79    82    1
    12    82    83    1
    13    76    77    1
    14    58    59    1
    15    59    62    1
    16    83    84    1
    17    83    85    1
    18    62    63    1
    19    89    88    2
    20    86    87    1
    21    88    87    1
    22    63    64   ar
    23    63    65   ar
    24    87    90    1
    25    90    91    1
    26    64    66   ar
    27   188   187    1
    28    92    93    1
    29    92    91    1
    30    65    68   ar
    31    65    67   ar
    32    68    70   ar
    33   187   186    1
    34    66    67   ar
    35   186   185    1
    36    67    69   ar
    37   180   181    1
    38    70    71   ar
    39    49    46    1
    40    46    45    1
    41    46    47    1
    42    48    47    2
    43   181   182    1
    44   181   184    1
    45    41    40    2
    46   185   184    1
    47    42    43    1
    48    42    39    1
    49    45    40   am
    50    47    50   am
    51    40    39    1
    52    69    71   ar
    53   150   149   ar
    54   150   148   ar
    55    53    52    2
    56   182   183    2
    57    43    44    1
    58   149   147   ar
    59   192   191    2
    60    52    51    1
    61    39    38    1
    62   148   146   ar
    63    50    51    1
    64    44    38    1
    65   191   190    1
    66    38    33   am
    67    51    54    1
    68   189   195    1
    69   189   190    1
    70   147   145   ar
    71    54    55    1
    72   195   194    1
    73   146   145   ar
    74   190   193    1
    75    33    32    1
    76    33    34    2
    77   145   144    1
    78    55    57    1
    79    55    56    1
    80   161   162    1
    81   161   158    1
    82    32    31    1
    83    32    35    1
    84   154   153    2
    85   193   194    1
    86   143   142    2
    87   139   138    1
    88   153   157   am
    89   153   152    1
    90   138   135    1
    91   157   158    1
    92   152   151    1
    93   152   155    1
    94    35    36    1
    95    35    37    1
    96   158   159    1
    97   144   141    1
    98   142   151   am
    99   142   141    1
   100   140   141    1
   101   140   136   am
   102   155   156    1
   103   135   134    1
   104   135   136    1
   105   134   128   am
   106   136   137    2
   107   132   131    1
   108   159   163   am
   109   159   160    2
   110   177   176    2
   111   163   164    1
   112   127   128    1
   113   127   126    1
   114   127   130    1
   115   128   129    2
   116   176   175    1
   117   131   130    1
   118   131   133    1
   119   100    99    1
   120   100    94    1
   121    99    98    1
   122   164   167    1
   123   164   165    1
   124   167   168    1
   125   175   174    1
   126   175   178    1
   127   165   166    2
   128    21    23   ar
   129    21    20   ar
   130    94    95    1
   131    98    95    1
   132    19    20    1
   133    19    16    1
   134    97    96    2
   135    23    24   ar
   136    15    16    1
   137   170   169    1
   138   170   171    2
   139    20    22   ar
   140   178   179    1
   141   168   169    1
   142    95    96    1
   143    16    17    1
   144   173   171    1
   145    96   101   am
   146   171   172    1
   147    24    22   ar
   148   179   106    1
   149   124   121    1
   150   124   125    1
   151   121   122    1
   152   121   120    1
   153   101   102    1
   154   122   123    2
   155    17    25   am
   156    17    18    2
   157   102   105    1
   158   102   103    1
   159    25    26    1
   160   106   105    1
   161   103   104    2
   162   103   107   am
   163    30    29    1
   164    30    14    1
   165   107   108    1
   166    26    29    1
   167    26    27    1
   168   108   111    1
   169   108   109    1
   170    27    28    2
   171    14    13    1
   172   111   112    1
   173   109   116   am
   174   109   110    2
   175   116   117    1
   176   118   119    2
   177   118   117    1
   178    13    10    1
   179   112   113    1
   180    10    11    1
   181    10     9    1
   182   113   114    1
   183    11    12    2
   184     4     3    2
   185   114   115    1
   186     9     3   am
   187     3     2    1
   188     5     2    1
   189     5     6    1
   190     2     1    1
   191     7     6    1
   192     6     8    1
