@<TRIPOS>MOLECULE
tmp/2zl2A00.pdb
 131 124 0 0 0
SMALL
GASTEIGER

@<TRIPOS>ATOM
      1  N         45.5410  109.2670  124.6860 N.3    17  GLU17      -0.1245
      2  CA        45.1520  110.4300  125.4710 C.3    17  GLU17       0.1567
      3  C         44.9970  111.6830  124.6500 C.2    17  GLU17       0.2260
      4  O         45.7170  111.8880  123.6730 O.2    17  GLU17      -0.2867
      5  CB        46.1660  110.6890  126.5910 C.3    17  GLU17       0.0388
      6  CG        45.8100  110.0130  127.9050 C.3    17  GLU17       0.1160
      7  CD        47.0410  109.6400  128.7230 C.2    17  GLU17       0.3649
      8  OE1       47.8720  110.5430  129.0060 O.co2  17  GLU17      -0.2457
      9  OE2       47.1740  108.4400  129.0800 O.co2  17  GLU17      -0.2457
     10  N         45.2110  115.7100  124.2740 N.3    19  ASN19      -0.1225
     11  CA        45.9450  116.8810  124.7250 C.3    19  ASN19       0.1785
     12  C         45.9460  117.8000  123.5260 C.2    19  ASN19       0.2597
     13  O         45.5220  117.3970  122.4420 O.2    19  ASN19      -0.2718
     14  CB        47.3890  116.5620  125.1190 C.3    19  ASN19       0.1169
     15  CG        48.1620  115.8680  124.0160 C.2    19  ASN19       0.2627
     16  OD1       47.9780  116.1520  122.8290 O.2    19  ASN19      -0.2716
     17  ND2       49.0500  114.9550  124.4070 N.am   19  ASN19      -0.0877
     18  N         46.4180  119.0280  123.7100 N.am   20  ASP20      -0.1974
     19  CA        46.4580  119.9960  122.6280 C.3    20  ASP20       0.1709
     20  C         47.1180  119.4500  121.3500 C.2    20  ASP20       0.2293
     21  O         46.5730  119.5870  120.2540 O.2    20  ASP20      -0.2864
     22  CB        47.1600  121.2810  123.1010 C.3    20  ASP20       0.1436
     23  CG        46.2480  122.1700  123.9610 C.2    20  ASP20       0.3671
     24  OD1       46.7520  123.1200  124.5820 O.co2  20  ASP20      -0.2456
     25  OD2       45.0240  121.9270  124.0200 O.co2  20  ASP20      -0.2456
     26  N         41.2490  112.7730  128.2190 N.3    51  GLY51      -0.1210
     27  CA        42.3270  113.7430  128.1950 C.3    51  GLY51       0.1956
     28  C         41.9020  115.1230  128.6410 C.2    51  GLY51       0.2612
     29  O         40.9680  115.2570  129.4320 O.2    51  GLY51      -0.2717
     30  N         42.5920  116.1420  128.1300 N.am   52  VAL52      -0.1965
     31  CA        42.3210  117.5360  128.4770 C.3    52  VAL52       0.1727
     32  C         40.9820  118.0320  127.9250 C.2    52  VAL52       0.2616
     33  O         40.7920  118.1220  126.7110 O.2    52  VAL52      -0.2715
     34  CB        43.4630  118.4420  127.9660 C.3    52  VAL52       0.0290
     35  CG1       43.2000  119.8920  128.3310 C.3    52  VAL52       0.0023
     36  CG2       44.7940  117.9660  128.5530 C.3    52  VAL52       0.0023
     37  N         40.0620  118.3520  128.8350 N.am   53  ILE53      -0.1963
     38  CA        38.7250  118.8290  128.4880 C.3    53  ILE53       0.1727
     39  C         38.7310  119.8010  127.3140 C.2    53  ILE53       0.2616
     40  O         38.0440  119.6000  126.3070 O.2    53  ILE53      -0.2715
     41  CB        38.0790  119.5230  129.6940 C.3    53  ILE53       0.0290
     42  CG1       37.9920  118.5310  130.8550 C.3    53  ILE53       0.0022
     43  CG2       36.7000  120.0530  129.3180 C.3    53  ILE53       0.0023
     44  CD1       37.5810  119.1500  132.1660 C.3    53  ILE53       0.0001
     45  N         39.5180  120.8560  127.4770 N.am   54  THR54      -0.1951
     46  CA        39.6860  121.9080  126.4890 C.3    54  THR54       0.1897
     47  C         39.9930  121.3390  125.1110 C.2    54  THR54       0.2313
     48  O         39.3300  121.6810  124.1270 O.2    54  THR54      -0.2863
     49  CB        40.8210  122.8580  126.9570 C.3    54  THR54       0.1794
     50  OG1       40.2470  124.1250  127.2740 O.3    54  THR54      -0.2208
     51  CG2       41.9430  123.0120  125.9000 C.3    54  THR54       0.0378
     52  N         35.7410  108.8000  129.3430 N.3    80  SER80      -0.1202
     53  CA        35.7940  110.2220  129.6410 C.3    80  SER80       0.2020
     54  C         35.6220  111.0670  128.3710 C.2    80  SER80       0.2618
     55  O         34.6300  110.9260  127.6450 O.2    80  SER80      -0.2717
     56  CB        37.1230  110.5450  130.3130 C.3    80  SER80       0.2103
     57  OG        37.3740  109.6230  131.3680 O.3    80  SER80      -0.2182
     58  N         36.5880  111.9350  128.0990 N.am   81  MET81      -0.1979
     59  CA        36.5160  112.7940  126.9200 C.3    81  MET81       0.1605
     60  C         36.4190  111.9930  125.6260 C.2    81  MET81       0.2287
     61  O         36.0890  112.5490  124.5780 O.2    81  MET81      -0.2864
     62  CB        37.7310  113.7300  126.8650 C.3    81  MET81       0.0413
     63  CG        37.6570  114.7690  125.7610 C.3    81  MET81       0.0598
     64  SD        36.0400  115.6110  125.7300 S.3    81  MET81      -0.1393
     65  CE        36.0030  116.3890  127.3520 C.3    81  MET81       0.0692
     66  N         32.3840  109.9330  133.1800 N.3   105  HIS105     -0.1241
     67  CA        32.5970  110.3950  134.5320 C.3   105  HIS105      0.1621
     68  C         32.5710  111.9160  134.5780 C.2   105  HIS105      0.2264
     69  O         32.2920  112.5740  133.5650 O.2   105  HIS105     -0.2867
     70  CB        33.9410  109.8730  135.0540 C.3   105  HIS105      0.0745
     71  CG        35.1420  110.4870  134.3960 C.ar  105  HIS105      0.0817
     72  ND1       36.4130  109.9750  134.5530 N.ar  105  HIS105     -0.2268
     73  CD2       35.2780  111.5970  133.6300 C.ar  105  HIS105      0.1154
     74  CE1       37.2780  110.7460  133.9180 C.ar  105  HIS105      0.1986
     75  NE2       36.6150  111.7380  133.3490 N.ar  105  HIS105     -0.2212
     76  N         34.6410  115.5620  135.4430 N.3   107  PRO107     -0.2102
     77  CA        36.0110  116.0490  135.2450 C.3   107  PRO107      0.1504
     78  C         36.9880  115.9460  136.4190 C.2   107  PRO107      0.2576
     79  O         36.5960  115.7600  137.5780 O.2   107  PRO107     -0.2718
     80  CB        35.8050  117.4910  134.7750 C.3   107  PRO107      0.0282
     81  CG        34.4670  117.8700  135.3580 C.3   107  PRO107      0.0208
     82  CD        33.6550  116.6210  135.1570 C.3   107  PRO107      0.0893
     83  N         38.2740  116.0530  136.0850 N.am  108  LEU108     -0.1966
     84  CA        39.3570  115.9830  137.0530 C.3   108  LEU108      0.1728
     85  C         40.2640  117.1900  136.8550 C.2   108  LEU108      0.2617
     86  O         40.4070  117.7080  135.7450 O.2   108  LEU108     -0.2715
     87  CB        40.1920  114.7200  136.8420 C.3   108  LEU108      0.0311
     88  CG        39.5120  113.3600  136.7820 C.3   108  LEU108      0.0022
     89  CD1       40.0540  112.6060  135.5720 C.3   108  LEU108      0.0001
     90  CD2       39.7730  112.5780  138.0470 C.3   108  LEU108      0.0001
     91  N         40.8970  117.6250  137.9350 N.am  109  GLY109     -0.1940
     92  CA        41.7830  118.7690  137.8470 C.3   109  GLY109      0.2014
     93  C         42.6350  118.9450  139.0900 C.2   109  GLY109      0.2639
     94  O         42.6290  118.1050  140.0000 O.2   109  GLY109     -0.2714
     95  N         43.3770  120.0470  139.1110 N.am  110  GLY110     -0.1954
     96  CA        44.2280  120.3620  140.2380 C.3   110  GLY110      0.1869
     97  C         44.0300  121.8160  140.6000 C.2   110  GLY110      0.2309
     98  O         43.4450  122.5800  139.8310 O.2   110  GLY110     -0.2863
     99  N         35.6040  127.1600  137.8830 N.3   124  GLU124     -0.1231
    100  CA        35.7780  126.9120  136.4520 C.3   124  GLU124      0.1699
    101  C         35.6480  125.4300  136.0920 C.2   124  GLU124      0.2592
    102  O         35.1960  125.1010  134.9990 O.2   124  GLU124     -0.2718
    103  CB        37.1290  127.4530  135.9740 C.3   124  GLU124      0.0402
    104  CG        37.4650  127.1520  134.5080 C.3   124  GLU124      0.1161
    105  CD        36.3850  127.6010  133.5000 C.2   124  GLU124      0.3649
    106  OE1       35.4020  128.2660  133.8980 O.co2 124  GLU124     -0.2457
    107  OE2       36.5330  127.2810  132.3020 O.co2 124  GLU124     -0.2457
    108  N         36.0300  124.5280  136.9930 N.am  125  ILE125     -0.1980
    109  CA        35.9040  123.1080  136.6780 C.3   125  ILE125      0.1595
    110  C         34.4480  122.6600  136.8810 C.2   125  ILE125      0.2287
    111  O         33.9800  121.7180  136.2380 O.2   125  ILE125     -0.2864
    112  CB        36.8630  122.2240  137.5330 C.3   125  ILE125      0.0276
    113  CG1       36.9330  120.8200  136.9280 C.3   125  ILE125      0.0022
    114  CG2       36.3630  122.1070  138.9560 C.3   125  ILE125      0.0022
    115  CD1       38.0180  119.9410  137.5140 C.3   125  ILE125      0.0001
    116  N         32.5970  123.5810  133.7850 N.3   128  LEU128     -0.1245
    117  CA        32.8690  122.5960  132.7350 C.3   128  LEU128      0.1561
    118  C         32.0960  121.3070  132.9750 C.2   128  LEU128      0.2260
    119  O         31.6860  120.6350  132.0330 O.2   128  LEU128     -0.2867
    120  CB        34.3590  122.2690  132.6760 C.3   128  LEU128      0.0270
    121  CG        35.2640  123.1790  131.8490 C.3   128  LEU128      0.0019
    122  CD1       34.9410  124.6410  132.0940 C.3   128  LEU128      0.0001
    123  CD2       36.7040  122.8760  132.2210 C.3   128  LEU128      0.0001
    124  N         29.1910  119.8360  130.3640 N.3   132  MET132     -0.1245
    125  CA        29.3280  118.5350  129.7270 C.3   132  MET132      0.1570
    126  C         28.2600  117.5370  130.1240 C.2   132  MET132      0.2261
    127  O         27.9920  116.5860  129.3990 O.2   132  MET132     -0.2867
    128  CB        30.7210  117.9700  129.9790 C.3   132  MET132      0.0387
    129  CG        31.8050  118.8530  129.3700 C.3   132  MET132      0.0595
    130  SD        33.3810  118.0250  129.1940 S.3   132  MET132     -0.1393
    131  CE        33.8450  117.8110  130.9230 C.3   132  MET132      0.0692
@<TRIPOS>BOND
     1    21    20    2
     2    20    19    1
     3    13    12    2
     4    19    22    1
     5    19    18    1
     6    16    15    2
     7    22    23    1
     8    12    18   am
     9    12    11    1
    10     4     3    2
    11    23    25   ar
    12    23    24   ar
    13    15    17   am
    14    15    14    1
    15    48    47    2
    16    10    11    1
    17    61    60    2
    18     3     2    1
    19     1     2    1
    20    11    14    1
    21    47    46    1
    22     2     5    1
    23    60    59    1
    24    64    63    1
    25    64    65    1
    26    63    62    1
    27    51    49    1
    28    40    39    2
    29    46    49    1
    30    46    45    1
    31     5     6    1
    32    33    32    2
    33    62    59    1
    34    59    58    1
    35    49    50    1
    36    39    45   am
    37    39    38    1
    38    55    54    2
    39     6     7    1
    40    32    31    1
    41    32    37   am
    42    34    35    1
    43    34    31    1
    44    34    36    1
    45    58    54   am
    46    30    31    1
    47    30    28   am
    48    27    26    1
    49    27    28    1
    50    54    53    1
    51    38    37    1
    52    38    41    1
    53    28    29    2
    54     7     8   ar
    55     7     9   ar
    56   130   129    1
    57   130   131    1
    58    43    41    1
    59    52    53    1
    60   129   128    1
    61   127   126    2
    62    53    56    1
    63    41    42    1
    64   125   128    1
    65   125   126    1
    66   125   124    1
    67    56    57    1
    68    42    44    1
    69   121   122    1
    70   121   123    1
    71   121   120    1
    72   119   118    2
    73   107   105   ar
    74   120   117    1
    75   117   118    1
    76   117   116    1
    77    66    67    1
    78    75    73   ar
    79    75    74   ar
    80   105   106   ar
    81   105   104    1
    82    69    68    2
    83    73    71   ar
    84    74    72   ar
    85    71    72   ar
    86    71    70    1
    87   104   103    1
    88    67    68    1
    89    67    70    1
    90    80    77    1
    91    80    81    1
    92   102   101    2
    93    82    81    1
    94    82    76    1
    95    77    76    1
    96    77    78    1
    97    89    88    1
    98    86    85    2
    99   103   100    1
   100    83    78   am
   101    83    84    1
   102   101   100    1
   103   101   108   am
   104   111   110    2
   105    78    79    2
   106   100    99    1
   107   109   110    1
   108   109   108    1
   109   109   112    1
   110    88    87    1
   111    88    90    1
   112    87    84    1
   113    85    84    1
   114    85    91   am
   115   113   115    1
   116   113   112    1
   117   112   114    1
   118    92    91    1
   119    92    93    1
   120    93    95   am
   121    93    94    2
   122    95    96    1
   123    98    97    2
   124    96    97    1
