@<TRIPOS>MOLECULE
tmp/2zl2E00.pdb
 97 92 0 0 0
SMALL
GASTEIGER

@<TRIPOS>ATOM
      1  N         89.9090  105.0030  120.0840 N.3    49  PRO49      -0.2116
      2  CA        90.5200  104.7370  121.3860 C.3    49  PRO49       0.1372
      3  C         90.3290  103.2660  121.7550 C.2    49  PRO49       0.2244
      4  O         90.6340  102.8600  122.8710 O.2    49  PRO49      -0.2868
      5  CB        89.7410  105.6550  122.3170 C.3    49  PRO49       0.0268
      6  CG        88.3640  105.6090  121.7240 C.3    49  PRO49       0.0207
      7  CD        88.6370  105.7360  120.2440 C.3    49  PRO49       0.0892
      8  N         87.8840   99.5390  121.9350 N.3    51  GLY51      -0.1210
      9  CA        86.5220   99.1130  122.2130 C.3    51  GLY51       0.1956
     10  C         86.3830   97.6620  122.6470 C.2    51  GLY51       0.2612
     11  O         87.2940   97.1040  123.2580 O.2    51  GLY51      -0.2717
     12  N         85.2340   97.0550  122.3430 N.am   52  VAL52      -0.1965
     13  CA        84.9800   95.6600  122.7040 C.3    52  VAL52       0.1727
     14  C         85.8260   94.7820  121.8000 C.2    52  VAL52       0.2616
     15  O         85.8220   94.9490  120.5790 O.2    52  VAL52      -0.2715
     16  CB        83.4890   95.2760  122.5090 C.3    52  VAL52       0.0290
     17  CG1       83.2650   93.8180  122.9080 C.3    52  VAL52       0.0023
     18  CG2       82.5920   96.1960  123.3330 C.3    52  VAL52       0.0023
     19  N         86.5520   93.8490  122.4050 N.am   53  ILE53      -0.1977
     20  CA        87.4150   92.9470  121.6630 C.3    53  ILE53       0.1596
     21  C         86.7000   92.1670  120.5440 C.2    53  ILE53       0.2287
     22  O         87.0560   92.3050  119.3650 O.2    53  ILE53      -0.2864
     23  CB        88.0960   91.9540  122.6250 C.3    53  ILE53       0.0276
     24  CG1       88.7840   92.7320  123.7550 C.3    53  ILE53       0.0022
     25  CG2       89.0910   91.0900  121.8640 C.3    53  ILE53       0.0022
     26  CD1       89.4710   91.8600  124.7920 C.3    53  ILE53       0.0001
     27  N         94.6710  100.7190  121.8170 N.3    80  SER80      -0.1202
     28  CA        94.1020   99.4140  122.0960 C.3    80  SER80       0.2020
     29  C         93.6100   98.6830  120.8430 C.2    80  SER80       0.2618
     30  O         94.3620   98.5170  119.8790 O.2    80  SER80      -0.2717
     31  CB        92.9700   99.5810  123.0950 C.3    80  SER80       0.2103
     32  OG        93.4610  100.1950  124.2720 O.3    80  SER80      -0.2182
     33  N         92.3540   98.2430  120.8530 N.am   81  MET81      -0.1979
     34  CA        91.7940   97.5120  119.7130 C.3    81  MET81       0.1605
     35  C         91.9820   98.3110  118.4380 C.2    81  MET81       0.2287
     36  O         91.9730   97.7590  117.3390 O.2    81  MET81      -0.2864
     37  CB        90.3080   97.2110  119.9440 C.3    81  MET81       0.0413
     38  CG        89.6380   96.3660  118.8560 C.3    81  MET81       0.0598
     39  SD        90.4480   94.7610  118.5070 S.3    81  MET81      -0.1393
     40  CE        90.4030   93.9580  120.1450 C.3    81  MET81       0.0692
     41  N         98.0060   97.6040  124.6610 N.3   105  HIS105     -0.1241
     42  CA        97.8970   97.2150  126.0590 C.3   105  HIS105      0.1621
     43  C         97.2010   95.8770  126.1780 C.2   105  HIS105      0.2264
     44  O         96.8700   95.2640  125.1740 O.2   105  HIS105     -0.2867
     45  CB        97.1060   98.2780  126.8370 C.3   105  HIS105      0.0745
     46  CG        95.6270   98.2370  126.6000 C.ar  105  HIS105      0.0817
     47  ND1       94.7600   99.1350  127.1860 N.ar  105  HIS105     -0.2268
     48  CD2       94.8560   97.3870  125.8800 C.ar  105  HIS105      0.1154
     49  CE1       93.5200   98.8360  126.8400 C.ar  105  HIS105      0.1986
     50  NE2       93.5510   97.7790  126.0480 N.ar  105  HIS105     -0.2212
     51  N         93.9800   93.2930  127.5960 N.3   107  PRO107     -0.2102
     52  CA        92.5210   93.3790  127.7280 C.3   107  PRO107      0.1504
     53  C         92.0080   93.8750  129.0870 C.2   107  PRO107      0.2576
     54  O         92.6520   93.6810  130.1240 O.2   107  PRO107     -0.2718
     55  CB        92.0650   91.9520  127.4360 C.3   107  PRO107      0.0282
     56  CG        93.0960   91.4680  126.4560 C.3   107  PRO107      0.0208
     57  CD        94.3800   91.9690  127.0880 C.3   107  PRO107      0.0893
     58  N         90.8380   94.5120  129.0500 N.am  108  LEU108     -0.1966
     59  CA        90.1570   95.0430  130.2330 C.3   108  LEU108      0.1728
     60  C         88.7770   94.4010  130.3300 C.2   108  LEU108      0.2617
     61  O         88.1590   94.0790  129.3180 O.2   108  LEU108     -0.2715
     62  CB        89.9820   96.5560  130.1130 C.3   108  LEU108      0.0311
     63  CG        91.2540   97.3860  130.1670 C.3   108  LEU108      0.0022
     64  CD1       90.9900   98.7600  129.5990 C.3   108  LEU108      0.0001
     65  CD2       91.7380   97.4670  131.5900 C.3   108  LEU108      0.0001
     66  N         88.2790   94.2270  131.5440 N.am  109  GLY109     -0.1940
     67  CA        86.9720   93.6200  131.6980 C.3   109  GLY109      0.2014
     68  C         86.5340   93.5140  133.1410 C.2   109  GLY109      0.2639
     69  O         87.0350   94.2300  134.0040 O.2   109  GLY109     -0.2714
     70  N         85.5930   92.6150  133.4030 N.am  110  GLY110     -0.1954
     71  CA        85.0970   92.4340  134.7530 C.3   110  GLY110      0.1869
     72  C         84.3670   91.1170  134.9330 C.2   110  GLY110      0.2309
     73  O         83.9800   90.4740  133.9650 O.2   110  GLY110     -0.2863
     74  N         89.2550   85.8580  129.5560 N.3   125  ILE125     -0.1245
     75  CA        89.9090   87.1350  129.2860 C.3   125  ILE125      0.1561
     76  C         91.3940   86.8820  129.0730 C.2   125  ILE125      0.2260
     77  O         92.0320   87.5440  128.2600 O.2   125  ILE125     -0.2867
     78  CB        89.6660   88.1480  130.4420 C.3   125  ILE125      0.0252
     79  CG1       88.1610   88.4370  130.5390 C.3   125  ILE125      0.0019
     80  CG2       90.3950   89.4560  130.1710 C.3   125  ILE125      0.0019
     81  CD1       87.7530   89.3450  131.6860 C.3   125  ILE125      0.0001
     82  N         91.9800   85.5200  125.6430 N.3   128  LEU128     -0.1245
     83  CA        91.9450   86.5840  124.6410 C.3   128  LEU128      0.1561
     84  C         93.2000   87.4450  124.7230 C.2   128  LEU128      0.2260
     85  O         93.5710   88.1080  123.7510 O.2   128  LEU128     -0.2867
     86  CB        90.6990   87.4690  124.8200 C.3   128  LEU128      0.0270
     87  CG        89.3050   86.9160  124.4580 C.3   128  LEU128      0.0019
     88  CD1       88.2450   87.8860  124.9310 C.3   128  LEU128      0.0001
     89  CD2       89.1760   86.7060  122.9610 C.3   128  LEU128      0.0001
     90  N         95.5920   87.8760  121.4190 N.3   132  MET132     -0.1245
     91  CA        95.9350   89.1520  120.8040 C.3   132  MET132      0.1570
     92  C         97.4240   89.4910  120.8930 C.2   132  MET132      0.2261
     93  O         97.9540   90.2320  120.0590 O.2   132  MET132     -0.2867
     94  CB        95.0770   90.2760  121.3920 C.3   132  MET132      0.0387
     95  CG        93.6090   90.1650  120.9970 C.3   132  MET132      0.0595
     96  SD        92.7380   91.7430  121.0690 S.3   132  MET132     -0.1393
     97  CE        92.4740   91.8900  122.8580 C.3   132  MET132      0.0692
@<TRIPOS>BOND
     1    36    35    2
     2    35    34    1
     3    39    38    1
     4    39    40    1
     5    38    37    1
     6    22    21    2
     7    34    37    1
     8    34    33    1
     9    30    29    2
    10    93    92    2
    11     1     7    1
    12     1     2    1
    13     7     6    1
    14    21    20    1
    15    15    14    2
    16    91    92    1
    17    91    94    1
    18    91    90    1
    19    29    33   am
    20    29    28    1
    21    95    96    1
    22    95    94    1
    23    96    97    1
    24     2     3    1
    25     2     5    1
    26    20    19    1
    27    20    23    1
    28     6     5    1
    29     3     4    2
    30    14    19   am
    31    14    13    1
    32    27    28    1
    33    25    23    1
    34     8     9    1
    35    28    31    1
    36     9    10    1
    37    12    10   am
    38    12    13    1
    39    16    13    1
    40    16    17    1
    41    16    18    1
    42    23    24    1
    43    10    11    2
    44    89    87    1
    45    31    32    1
    46    85    84    2
    47    24    26    1
    48    87    86    1
    49    87    88    1
    50    83    84    1
    51    83    86    1
    52    83    82    1
    53    41    42    1
    54    44    43    2
    55    48    50   ar
    56    48    46   ar
    57    50    49   ar
    58    42    43    1
    59    42    45    1
    60    56    57    1
    61    56    55    1
    62    46    45    1
    63    46    47   ar
    64    49    47   ar
    65    57    51    1
    66    55    52    1
    67    51    52    1
    68    52    53    1
    69    77    76    2
    70    58    53   am
    71    58    59    1
    72    76    75    1
    73    53    54    2
    74    75    74    1
    75    75    78    1
    76    61    60    2
    77    64    63    1
    78    62    63    1
    79    62    59    1
    80    63    65    1
    81    80    78    1
    82    59    60    1
    83    60    66   am
    84    78    79    1
    85    79    81    1
    86    66    67    1
    87    67    68    1
    88    68    70   am
    89    68    69    2
    90    70    71    1
    91    73    72    2
    92    71    72    1
