@<TRIPOS>MOLECULE
tmp/2zl2B00.pdb
 133 126 0 0 0
SMALL
GASTEIGER

@<TRIPOS>ATOM
      1  N         51.7420  131.8160  127.2280 N.3    51  GLY51      -0.1210
      2  CA        53.1640  131.6080  127.0090 C.3    51  GLY51       0.1956
      3  C         54.0200  132.8230  127.2730 C.2    51  GLY51       0.2612
      4  O         53.5870  133.7600  127.9320 O.2    51  GLY51      -0.2717
      5  N         55.2430  132.8140  126.7550 N.am   52  VAL52      -0.1965
      6  CA        56.1640  133.9200  126.9640 C.3    52  VAL52       0.1727
      7  C         55.5520  135.1910  126.4100 C.2    52  VAL52       0.2616
      8  O         55.1050  135.2190  125.2540 O.2    52  VAL52      -0.2715
      9  CB        57.4970  133.6400  126.2650 C.3    52  VAL52       0.0290
     10  CG1       58.4610  134.7970  126.4720 C.3    52  VAL52       0.0023
     11  CG2       58.0840  132.3340  126.7980 C.3    52  VAL52       0.0023
     12  N         55.5150  136.2430  127.2260 N.am   53  ILE53      -0.1963
     13  CA        54.9430  137.5190  126.7850 C.3    53  ILE53       0.1727
     14  C         55.5910  138.0790  125.5090 C.2    53  ILE53       0.2616
     15  O         54.9050  138.3730  124.5300 O.2    53  ILE53      -0.2715
     16  CB        55.0380  138.6010  127.9040 C.3    53  ILE53       0.0290
     17  CG1       54.0530  138.2780  129.0330 C.3    53  ILE53       0.0022
     18  CG2       54.7290  139.9740  127.3370 C.3    53  ILE53       0.0023
     19  CD1       54.0440  139.2990  130.1590 C.3    53  ILE53       0.0001
     20  N         56.9100  138.2270  125.5180 N.am   54  THR54      -0.1951
     21  CA        57.5920  138.7750  124.3620 C.3    54  THR54       0.1897
     22  C         57.3490  137.9280  123.1150 C.2    54  THR54       0.2313
     23  O         57.1610  138.4740  122.0290 O.2    54  THR54      -0.2863
     24  CB        59.0940  138.9240  124.6250 C.3    54  THR54       0.1794
     25  OG1       59.6690  137.6360  124.8270 O.3    54  THR54      -0.2208
     26  CG2       59.3330  139.7700  125.8690 C.3    54  THR54       0.0378
     27  N         45.1900  133.6240  128.7130 N.3    80  SER80      -0.1202
     28  CA        46.3700  134.4540  128.8330 C.3    80  SER80       0.2020
     29  C         46.7830  134.9840  127.4610 C.2    80  SER80       0.2618
     30  O         45.9350  135.4570  126.7070 O.2    80  SER80      -0.2717
     31  CB        47.4970  133.6520  129.4740 C.3    80  SER80       0.2103
     32  OG        47.1000  133.2210  130.7670 O.3    80  SER80      -0.2182
     33  N         48.0700  134.8930  127.1380 N.am   81  MET81      -0.1979
     34  CA        48.5860  135.3920  125.8680 C.3    81  MET81       0.1605
     35  C         47.7460  134.9660  124.6570 C.2    81  MET81       0.2287
     36  O         47.7580  135.6220  123.6140 O.2    81  MET81      -0.2864
     37  CB        50.0400  134.9450  125.6940 C.3    81  MET81       0.0413
     38  CG        50.7090  135.4700  124.4320 C.3    81  MET81       0.0598
     39  SD        50.5610  137.2690  124.2720 S.3    81  MET81      -0.1393
     40  CE        51.9310  137.8430  125.2860 C.3    81  MET81       0.0692
     41  N         44.8280  137.1630  124.5060 N.3    84  PHE84      -0.1241
     42  CA        45.4110  138.3970  124.0130 C.3    84  PHE84       0.1605
     43  C         45.4770  138.3840  122.4880 C.2    84  PHE84       0.2264
     44  O         44.9260  139.2630  121.8230 O.2    84  PHE84      -0.2867
     45  CB        46.8150  138.5600  124.5860 C.3    84  PHE84       0.0534
     46  CG        47.5300  139.8030  124.1270 C.ar   84  PHE84      -0.0203
     47  CD1       47.3090  141.0250  124.7590 C.ar   84  PHE84      -0.0042
     48  CD2       48.4550  139.7440  123.0830 C.ar   84  PHE84      -0.0042
     49  CE1       48.0000  142.1760  124.3650 C.ar   84  PHE84      -0.0003
     50  CE2       49.1530  140.8870  122.6760 C.ar   84  PHE84      -0.0003
     51  CZ        48.9250  142.1070  123.3200 C.ar   84  PHE84      -0.0000
     52  N         44.3250  137.3950  132.2350 N.3   105  HIS105     -0.1241
     53  CA        44.9080  137.6330  133.5470 C.3   105  HIS105      0.1621
     54  C         46.1920  138.4320  133.4200 C.2   105  HIS105      0.2264
     55  O         46.6360  138.7140  132.3090 O.2   105  HIS105     -0.2867
     56  CB        45.1720  136.3020  134.2790 C.3   105  HIS105      0.0745
     57  CG        46.3200  135.5040  133.7380 C.ar  105  HIS105      0.0817
     58  ND1       46.6950  134.2930  134.2820 N.ar  105  HIS105     -0.2268
     59  CD2       47.1860  135.7420  132.7220 C.ar  105  HIS105      0.1154
     60  CE1       47.7430  133.8200  133.6280 C.ar  105  HIS105      0.1986
     61  NE2       48.0620  134.6810  132.6770 N.ar  105  HIS105     -0.2212
     62  N         50.3740  139.3810  133.8840 N.3   107  PRO107     -0.2102
     63  CA        51.6320  138.6800  133.6410 C.3   107  PRO107      0.1504
     64  C         52.1170  137.9250  134.8740 C.2   107  PRO107      0.2576
     65  O         51.8160  138.3100  136.0110 O.2   107  PRO107     -0.2718
     66  CB        52.5910  139.8110  133.2650 C.3   107  PRO107      0.0282
     67  CG        51.6850  140.8400  132.6490 C.3   107  PRO107      0.0208
     68  CD        50.5090  140.8170  133.5820 C.3   107  PRO107      0.0893
     69  N         52.8630  136.8470  134.6260 N.am  108  LEU108     -0.1966
     70  CA        53.4620  136.0140  135.6710 C.3   108  LEU108      0.1728
     71  C         54.9710  136.1110  135.4220 C.2   108  LEU108      0.2617
     72  O         55.4080  136.2570  134.2730 O.2   108  LEU108     -0.2715
     73  CB        53.0090  134.5530  135.5340 C.3   108  LEU108      0.0311
     74  CG        51.5970  134.1080  135.9370 C.3   108  LEU108      0.0022
     75  CD1       51.5060  133.9630  137.4330 C.3   108  LEU108      0.0001
     76  CD2       50.5720  135.0900  135.4360 C.3   108  LEU108      0.0001
     77  N         55.7730  136.0440  136.4750 N.am  109  GLY109     -0.1940
     78  CA        57.2040  136.1420  136.2590 C.3   109  GLY109      0.2014
     79  C         58.0570  135.7630  137.4490 C.2   109  GLY109      0.2639
     80  O         57.5690  135.2000  138.4360 O.2   109  GLY109     -0.2714
     81  N         59.3450  136.0780  137.3530 N.am  110  GLY110     -0.1954
     82  CA        60.2560  135.7610  138.4340 C.3   110  GLY110      0.1869
     83  C         61.5170  136.6050  138.4350 C.2   110  GLY110      0.2309
     84  O         61.9490  137.1120  137.3900 O.2   110  GLY110     -0.2863
     85  N         63.5620  144.1520  137.4480 N.3   121  ILE121     -0.1245
     86  CA        62.6810  143.1620  136.8610 C.3   121  ILE121      0.1561
     87  C         61.2230  143.4180  137.2240 C.2   121  ILE121      0.2260
     88  O         60.3400  143.2780  136.3790 O.2   121  ILE121     -0.2867
     89  CB        63.0770  141.7540  137.3200 C.3   121  ILE121      0.0252
     90  CG1       64.5080  141.4630  136.8700 C.3   121  ILE121      0.0019
     91  CG2       62.1150  140.7320  136.7560 C.3   121  ILE121      0.0019
     92  CD1       65.0610  140.1390  137.3620 C.3   121  ILE121      0.0001
     93  N         59.8270  146.0350  135.0170 N.3   124  GLU124     -0.1231
     94  CA        59.6130  145.5660  133.6530 C.3   124  GLU124      0.1699
     95  C         58.3430  144.7200  133.5390 C.2   124  GLU124      0.2592
     96  O         57.5690  144.8730  132.5870 O.2   124  GLU124     -0.2718
     97  CB        60.8460  144.7830  133.1780 C.3   124  GLU124      0.0402
     98  CG        60.7620  144.2160  131.7680 C.3   124  GLU124      0.1161
     99  CD        60.3640  145.2460  130.7130 C.2   124  GLU124      0.3649
    100  OE1       60.2900  144.8740  129.5150 O.co2 124  GLU124     -0.2457
    101  OE2       60.1180  146.4190  131.0740 O.co2 124  GLU124     -0.2457
    102  N         58.1130  143.8440  134.5140 N.am  125  ILE125     -0.1980
    103  CA        56.9170  143.0080  134.4900 C.3   125  ILE125      0.1595
    104  C         55.6970  143.9220  134.6540 C.2   125  ILE125      0.2287
    105  O         54.6470  143.7050  134.0490 O.2   125  ILE125     -0.2864
    106  CB        56.9500  141.9270  135.6210 C.3   125  ILE125      0.0276
    107  CG1       58.2080  141.0700  135.4700 C.3   125  ILE125      0.0022
    108  CG2       55.7580  141.0040  135.5100 C.3   125  ILE125      0.0022
    109  CD1       58.3010  139.9110  136.4460 C.3   125  ILE125      0.0001
    110  N         55.1730  145.5650  131.3250 N.3   128  LEU128     -0.1245
    111  CA        54.4950  144.6270  130.4300 C.3   128  LEU128      0.1561
    112  C         53.0490  144.4600  130.8680 C.2   128  LEU128      0.2260
    113  O         52.1560  144.3030  130.0420 O.2   128  LEU128     -0.2867
    114  CB        55.1930  143.2700  130.4280 C.3   128  LEU128      0.0270
    115  CG        56.5550  143.2230  129.7300 C.3   128  LEU128      0.0019
    116  CD1       57.2060  141.8600  129.9620 C.3   128  LEU128      0.0001
    117  CD2       56.3750  143.5130  128.2480 C.3   128  LEU128      0.0001
    118  N         50.0800  145.2550  128.0460 N.3   132  MET132     -0.1245
    119  CA        49.0580  144.2500  127.7420 C.3   132  MET132      0.1570
    120  C         47.6390  144.6530  128.0900 C.2   132  MET132      0.2261
    121  O         46.7300  144.5120  127.2760 O.2   132  MET132     -0.2867
    122  CB        49.3470  142.9420  128.4740 C.3   132  MET132      0.0387
    123  CG        49.4670  141.7490  127.5610 C.3   132  MET132      0.0595
    124  SD        51.1340  141.6130  126.9180 S.3   132  MET132     -0.1393
    125  CE        51.9600  141.1030  128.4330 C.3   132  MET132      0.0692
    126  N         44.4630  145.2920  125.5450 N.3   136  LEU136     -0.1245
    127  CA        43.2200  144.5500  125.7660 C.3   136  LEU136      0.1561
    128  C         42.0520  145.5310  125.8980 C.2   136  LEU136      0.2260
    129  O         40.9210  145.2280  125.5160 O.2   136  LEU136     -0.2867
    130  CB        43.3240  143.6920  127.0360 C.3   136  LEU136      0.0270
    131  CG        44.0000  142.3170  126.9160 C.3   136  LEU136      0.0019
    132  CD1       44.0670  141.6520  128.2940 C.3   136  LEU136      0.0001
    133  CD2       43.2040  141.4350  125.9270 C.3   136  LEU136      0.0001
@<TRIPOS>BOND
     1    44    43    2
     2    23    22    2
     3    43    42    1
     4    50    48   ar
     5    50    51   ar
     6    48    46   ar
     7    22    21    1
     8    51    49   ar
     9    36    35    2
    10    42    41    1
    11    42    45    1
    12    46    45    1
    13    46    47   ar
    14    39    38    1
    15    39    40    1
    16    21    24    1
    17    21    20    1
    18    49    47   ar
    19    38    37    1
    20    15    14    2
    21    24    25    1
    22    24    26    1
    23    35    34    1
    24     8     7    2
    25    14    20   am
    26    14    13    1
    27   129   128    2
    28   126   127    1
    29    37    34    1
    30   127   128    1
    31   127   130    1
    32    34    33    1
    33   133   131    1
    34     9    10    1
    35     9    11    1
    36     9     6    1
    37     7     6    1
    38     7    12   am
    39    30    29    2
    40     5     6    1
    41     5     3   am
    42    13    12    1
    43    13    16    1
    44   131   130    1
    45   131   132    1
    46   124   123    1
    47   124   125    1
    48     2     1    1
    49     2     3    1
    50    33    29   am
    51     3     4    2
    52   121   120    2
    53    18    16    1
    54    29    28    1
    55   123   122    1
    56   119   118    1
    57   119   120    1
    58   119   122    1
    59    16    17    1
    60   117   115    1
    61    27    28    1
    62    28    31    1
    63    17    19    1
    64    31    32    1
    65   100    99   ar
    66   115   116    1
    67   115   114    1
    68   113   112    2
    69   114   111    1
    70   111   112    1
    71   111   110    1
    72    99   101   ar
    73    99    98    1
    74    98    97    1
    75    52    53    1
    76    55    54    2
    77    96    95    2
    78    67    66    1
    79    67    68    1
    80    61    59   ar
    81    61    60   ar
    82    59    57   ar
    83    97    94    1
    84    66    63    1
    85    54    53    1
    86    95    94    1
    87    95   102   am
    88    53    56    1
    89    68    62    1
    90    60    58   ar
    91    63    62    1
    92    63    64    1
    93    94    93    1
    94    57    56    1
    95    57    58   ar
    96   105   104    2
    97    72    71    2
    98   103   102    1
    99   103   104    1
   100   103   106    1
   101    69    64   am
   102    69    70    1
   103    64    65    2
   104    71    70    1
   105    71    77   am
   106    76    74    1
   107   107   106    1
   108   107   109    1
   109   108   106    1
   110    73    70    1
   111    73    74    1
   112    74    75    1
   113    78    77    1
   114    78    79    1
   115    88    87    2
   116    91    89    1
   117    86    87    1
   118    86    89    1
   119    86    85    1
   120    90    89    1
   121    90    92    1
   122    81    79   am
   123    81    82    1
   124    84    83    2
   125    79    80    2
   126    82    83    1
