@<TRIPOS>MOLECULE
tmp/2zl2H00.pdb
 169 164 0 0 0
SMALL
GASTEIGER

@<TRIPOS>ATOM
      1  N         57.4680  132.3990  159.9220 N.3    49  PRO49      -0.2102
      2  CA        56.9670  132.7370  158.5860 C.3    49  PRO49       0.1504
      3  C         55.5900  132.1080  158.3330 C.2    49  PRO49       0.2576
      4  O         54.9610  132.3450  157.2930 O.2    49  PRO49      -0.2718
      5  CB        58.0420  132.1770  157.6660 C.3    49  PRO49       0.0282
      6  CG        58.4640  130.9350  158.3780 C.3    49  PRO49       0.0208
      7  CD        58.4680  131.3150  159.8480 C.3    49  PRO49       0.0893
      8  N         55.1180  131.3110  159.2840 N.am   50  GLY50      -0.1943
      9  CA        53.8170  130.6910  159.1240 C.3    50  GLY50       0.2014
     10  C         53.8500  129.1770  159.0680 C.2    50  GLY50       0.2639
     11  O         54.8390  128.5490  159.4590 O.2    50  GLY50      -0.2714
     12  N         52.7660  128.5870  158.5740 N.am   51  GLY51      -0.1939
     13  CA        52.6940  127.1430  158.4810 C.3    51  GLY51       0.2014
     14  C         51.2840  126.5920  158.3600 C.2    51  GLY51       0.2639
     15  O         50.3520  127.2990  157.9630 O.2    51  GLY51      -0.2714
     16  N         51.1380  125.3150  158.7080 N.am   52  VAL52      -0.1963
     17  CA        49.8660  124.6050  158.6500 C.3    52  VAL52       0.1727
     18  C         48.8240  125.2820  159.5280 C.2    52  VAL52       0.2616
     19  O         49.0520  125.5220  160.7210 O.2    52  VAL52      -0.2715
     20  CB        50.0580  123.1330  159.0940 C.3    52  VAL52       0.0290
     21  CG1       48.7160  122.4140  159.0950 C.3    52  VAL52       0.0023
     22  CG2       51.0800  122.4400  158.1750 C.3    52  VAL52       0.0023
     23  N         47.6760  125.5830  158.9250 N.am   53  ILE53      -0.1963
     24  CA        46.5890  126.2700  159.6100 C.3    53  ILE53       0.1727
     25  C         46.0600  125.5800  160.8520 C.2    53  ILE53       0.2616
     26  O         46.0180  126.1890  161.9260 O.2    53  ILE53      -0.2715
     27  CB        45.4080  126.5240  158.6520 C.3    53  ILE53       0.0290
     28  CG1       45.8700  127.4380  157.5160 C.3    53  ILE53       0.0022
     29  CG2       44.2360  127.1690  159.4140 C.3    53  ILE53       0.0023
     30  CD1       44.8520  127.6310  156.4170 C.3    53  ILE53       0.0001
     31  N         45.6370  124.3240  160.7140 N.am   54  THR54      -0.1951
     32  CA        45.1140  123.5970  161.8580 C.3    54  THR54       0.1897
     33  C         46.1990  123.5160  162.9260 C.2    54  THR54       0.2313
     34  O         45.9130  123.6160  164.1200 O.2    54  THR54      -0.2863
     35  CB        44.6590  122.1680  161.4800 C.3    54  THR54       0.1794
     36  OG1       45.7300  121.4750  160.8370 O.3    54  THR54      -0.2208
     37  CG2       43.4540  122.2110  160.5400 C.3    54  THR54       0.0378
     38  N         51.8150  135.5480  158.2700 N.3    80  SER80      -0.1202
     39  CA        50.7210  134.6180  158.1220 C.3    80  SER80       0.2020
     40  C         50.3590  134.0960  159.5090 C.2    80  SER80       0.2618
     41  O         50.1780  134.8810  160.4560 O.2    80  SER80      -0.2717
     42  CB        51.1610  133.4740  157.2150 C.3    80  SER80       0.2103
     43  OG        51.7500  133.9860  156.0260 O.3    80  SER80      -0.2182
     44  N         50.2870  132.7740  159.6300 N.am   81  MET81      -0.1979
     45  CA        49.9240  132.1420  160.8870 C.3    81  MET81       0.1605
     46  C         50.7480  132.6870  162.0520 C.2    81  MET81       0.2287
     47  O         50.2740  132.7530  163.1920 O.2    81  MET81      -0.2864
     48  CB        50.0670  130.6310  160.7670 C.3    81  MET81       0.0413
     49  CG        49.5270  129.8700  161.9680 C.3    81  MET81       0.0598
     50  SD        47.7900  130.2400  162.3550 S.3    81  MET81      -0.1393
     51  CE        47.0030  129.6750  160.8370 C.3    81  MET81       0.0692
     52  N         49.1700  135.8220  162.8920 N.3    84  PHE84      -0.1241
     53  CA        47.8880  135.4970  163.4860 C.3    84  PHE84       0.1605
     54  C         48.0860  135.2100  164.9820 C.2    84  PHE84       0.2264
     55  O         47.4390  135.8330  165.8330 O.2    84  PHE84      -0.2867
     56  CB        47.2800  134.2800  162.7770 C.3    84  PHE84       0.0534
     57  CG        45.9820  133.8010  163.3760 C.ar   84  PHE84      -0.0203
     58  CD1       44.7690  134.3940  163.0240 C.ar   84  PHE84      -0.0042
     59  CD2       45.9670  132.7350  164.2740 C.ar   84  PHE84      -0.0042
     60  CE1       43.5660  133.9310  163.5510 C.ar   84  PHE84      -0.0003
     61  CE2       44.7620  132.2660  164.8040 C.ar   84  PHE84      -0.0003
     62  CZ        43.5610  132.8670  164.4400 C.ar   84  PHE84      -0.0000
     63  N         50.4550  139.7740  157.1080 N.3   104  ILE104     -0.1231
     64  CA        49.2240  139.0130  157.1220 C.3   104  ILE104      0.1692
     65  C         48.8240  138.7130  155.6760 C.2   104  ILE104      0.2592
     66  O         49.2490  139.4090  154.7370 O.2   104  ILE104     -0.2718
     67  CB        48.0870  139.7850  157.8480 C.3   104  ILE104      0.0266
     68  CG1       48.0080  141.2330  157.3490 C.3   104  ILE104      0.0019
     69  CG2       48.3350  139.7610  159.3620 C.3   104  ILE104      0.0020
     70  CD1       46.8830  142.0360  157.9800 C.3   104  ILE104      0.0001
     71  N         48.0230  137.6640  155.4990 N.am  105  HIS105     -0.1962
     72  CA        47.5840  137.2580  154.1750 C.3   105  HIS105      0.1787
     73  C         46.3940  136.3000  154.2670 C.2   105  HIS105      0.2620
     74  O         45.8370  136.0810  155.3440 O.2   105  HIS105     -0.2715
     75  CB        48.7530  136.5980  153.4260 C.3   105  HIS105      0.0785
     76  CG        49.0620  135.1930  153.8630 C.ar  105  HIS105      0.0821
     77  ND1       50.1650  134.5010  153.4030 N.ar  105  HIS105     -0.2267
     78  CD2       48.3650  134.3150  154.6280 C.ar  105  HIS105      0.1154
     79  CE1       50.1260  133.2600  153.8550 C.ar  105  HIS105      0.1986
     80  NE2       49.0420  133.1210  154.5990 N.ar  105  HIS105     -0.2212
     81  N         45.9940  135.7420  153.1330 N.am  106  GLN106     -0.1964
     82  CA        44.8890  134.7930  153.1200 C.3   106  GLN106      0.1718
     83  C         45.4830  133.3890  153.0360 C.2   106  GLN106      0.2458
     84  O         46.6320  133.2190  152.6320 O.2   106  GLN106     -0.2730
     85  CB        43.9520  135.0500  151.9290 C.3   106  GLN106      0.0407
     86  CG        44.5660  134.8060  150.5590 C.3   106  GLN106      0.0908
     87  CD        43.5170  134.8180  149.4600 C.2   106  GLN106      0.2608
     88  OE1       42.6620  133.9260  149.3990 O.2   106  GLN106     -0.2717
     89  NE2       43.5670  135.8320  148.5920 N.am  106  GLN106     -0.0878
     90  N         44.7070  132.3630  153.4160 N.am  107  PRO107     -0.2716
     91  CA        45.2130  130.9900  153.3700 C.3   107  PRO107      0.1536
     92  C         45.6340  130.4530  152.0070 C.2   107  PRO107      0.2598
     93  O         45.1170  130.8580  150.9650 O.2   107  PRO107     -0.2715
     94  CB        44.0840  130.1820  154.0130 C.3   107  PRO107      0.0310
     95  CG        42.8640  131.0520  153.8480 C.3   107  PRO107      0.0237
     96  CD        43.3830  132.4240  154.0600 C.3   107  PRO107      0.0939
     97  N         46.6040  129.5450  152.0430 N.am  108  LEU108     -0.1964
     98  CA        47.1540  128.8930  150.8510 C.3   108  LEU108      0.1728
     99  C         46.9340  127.3950  150.9950 C.2   108  LEU108      0.2617
    100  O         46.9440  126.8620  152.1110 O.2   108  LEU108     -0.2715
    101  CB        48.6610  129.1580  150.7460 C.3   108  LEU108      0.0311
    102  CG        49.1330  130.5920  150.4820 C.3   108  LEU108      0.0022
    103  CD1       50.5770  130.7480  150.9040 C.3   108  LEU108      0.0001
    104  CD2       48.9720  130.9140  149.0060 C.3   108  LEU108      0.0001
    105  N         46.7470  126.7170  149.8680 N.am  109  GLY109     -0.1940
    106  CA        46.5320  125.2830  149.8930 C.3   109  GLY109      0.2014
    107  C         46.4750  124.6740  148.5030 C.2   109  GLY109      0.2639
    108  O         46.8870  125.2950  147.5130 O.2   109  GLY109     -0.2714
    109  N         45.9530  123.4530  148.4250 N.am  110  GLY110     -0.1954
    110  CA        45.8610  122.7770  147.1450 C.3   110  GLY110      0.1869
    111  C         44.8070  121.6980  147.1060 C.2   110  GLY110      0.2309
    112  O         44.4420  121.1440  148.1460 O.2   110  GLY110     -0.2863
    113  N         37.2520  120.8420  148.9060 N.3   121  ILE121     -0.1245
    114  CA        38.4690  121.4430  149.4300 C.3   121  ILE121      0.1561
    115  C         38.3790  122.9570  149.3280 C.2   121  ILE121      0.2260
    116  O         38.6970  123.6660  150.2860 O.2   121  ILE121     -0.2867
    117  CB        39.7230  120.9070  148.6830 C.3   121  ILE121      0.0252
    118  CG1       39.8940  119.4140  149.0000 C.3   121  ILE121      0.0019
    119  CG2       40.9660  121.6360  149.1420 C.3   121  ILE121      0.0019
    120  CD1       40.8530  118.6620  148.0970 C.3   121  ILE121      0.0001
    121  N         36.2390  124.2050  152.0660 N.3   124  GLU124     -0.1231
    122  CA        36.8620  124.0960  153.3790 C.3   124  GLU124      0.1699
    123  C         37.8770  125.2070  153.5740 C.2   124  GLU124      0.2592
    124  O         37.8810  125.8630  154.6140 O.2   124  GLU124     -0.2718
    125  CB        37.5540  122.7420  153.5670 C.3   124  GLU124      0.0402
    126  CG        38.4330  122.6540  154.8360 C.3   124  GLU124      0.1161
    127  CD        37.6590  122.8850  156.1460 C.2   124  GLU124      0.3649
    128  OE1       36.4130  123.0380  156.1040 O.co2 124  GLU124     -0.2457
    129  OE2       38.3040  122.9130  157.2250 O.co2 124  GLU124     -0.2457
    130  N         38.7260  125.4320  152.5730 N.am  125  ILE125     -0.1980
    131  CA        39.7400  126.4610  152.6870 C.3   125  ILE125      0.1595
    132  C         39.1040  127.8390  152.7960 C.2   125  ILE125      0.2287
    133  O         39.6300  128.7020  153.4900 O.2   125  ILE125     -0.2864
    134  CB        40.7260  126.4310  151.5060 C.3   125  ILE125      0.0276
    135  CG1       41.8510  127.4230  151.7680 C.3   125  ILE125      0.0022
    136  CG2       40.0200  126.7710  150.2100 C.3   125  ILE125      0.0022
    137  CD1       42.8850  127.4840  150.6640 C.3   125  ILE125      0.0001
    138  N         37.9210  128.2740  156.2510 N.3   128  LEU128     -0.1245
    139  CA        39.0490  128.5340  157.1330 C.3   128  LEU128      0.1561
    140  C         39.4450  130.0020  156.9890 C.2   128  LEU128      0.2260
    141  O         39.8100  130.6600  157.9580 O.2   128  LEU128     -0.2867
    142  CB        40.2250  127.6360  156.7570 C.3   128  LEU128      0.0270
    143  CG        40.6060  126.5200  157.7310 C.3   128  LEU128      0.0019
    144  CD1       39.4200  126.0910  158.5870 C.3   128  LEU128      0.0001
    145  CD2       41.1610  125.3610  156.9240 C.3   128  LEU128      0.0001
    146  N         39.4370  132.7900  160.1260 N.3   132  MET132     -0.1230
    147  CA        40.5860  133.5540  160.5770 C.3   132  MET132      0.1702
    148  C         40.5080  135.0520  160.3380 C.2   132  MET132      0.2592
    149  O         41.1400  135.8310  161.0620 O.2   132  MET132     -0.2718
    150  CB        41.8620  132.9630  159.9830 C.3   132  MET132      0.0401
    151  CG        42.0940  131.5430  160.4820 C.3   132  MET132      0.0596
    152  SD        43.6870  130.8960  160.0280 S.3   132  MET132     -0.1393
    153  CE        43.4990  130.8180  158.2490 C.3   132  MET132      0.0692
    154  N         39.7370  135.4660  159.3400 N.am  133  ASN133     -0.1974
    155  CA        39.6030  136.8860  159.0940 C.3   133  ASN133      0.1688
    156  C         38.7560  137.4490  160.2270 C.2   133  ASN133      0.2292
    157  O         38.9400  138.6000  160.6400 O.2   133  ASN133     -0.2864
    158  CB        38.9560  137.1430  157.7210 C.3   133  ASN133      0.1181
    159  CG        39.9380  136.9430  156.5780 C.2   133  ASN133      0.2629
    160  OD1       41.1540  136.9190  156.7900 O.2   133  ASN133     -0.2716
    161  ND2       39.4240  136.8180  155.3640 N.am  133  ASN133     -0.0877
    162  N         40.9110  137.5800  163.3240 N.3   136  LEU136     -0.1245
    163  CA        41.8770  138.6270  163.0500 C.3   136  LEU136      0.1561
    164  C         41.2300  140.0140  163.1590 C.2   136  LEU136      0.2260
    165  O         41.8720  140.9810  163.5790 O.2   136  LEU136     -0.2867
    166  CB        42.4600  138.4110  161.6570 C.3   136  LEU136      0.0270
    167  CG        43.7480  139.1450  161.3080 C.3   136  LEU136      0.0019
    168  CD1       44.8530  138.7990  162.3260 C.3   136  LEU136      0.0001
    169  CD2       44.1540  138.7530  159.8900 C.3   136  LEU136      0.0001
@<TRIPOS>BOND
     1   111   110    1
     2   111   112    2
     3   110   109    1
     4   108   107    2
     5   120   118    1
     6   109   107   am
     7   107   106    1
     8    89    87   am
     9   117   118    1
    10   117   119    1
    11   117   114    1
    12   113   114    1
    13   104   102    1
    14   115   114    1
    15   115   116    2
    16    88    87    2
    17    87    86    1
    18   105   106    1
    19   105    99   am
    20   136   134    1
    21   102   101    1
    22   102   103    1
    23    86    85    1
    24   137   135    1
    25   101    98    1
    26    98    99    1
    27    98    97    1
    28    93    92    2
    29    99   100    2
    30   134   135    1
    31   134   131    1
    32    85    82    1
    33    92    97   am
    34    92    91    1
    35   121   122    1
    36   130   131    1
    37   130   123   am
    38    84    83    2
    39   131   132    1
    40   132   133    2
    41    83    82    1
    42    83    90   am
    43    82    81    1
    44    81    73   am
    45    91    90    1
    46    91    94    1
    47   122   125    1
    48   122   123    1
    49    77    79   ar
    50    77    76   ar
    51    90    96    1
    52    75    76    1
    53    75    72    1
    54   125   126    1
    55   123   124    2
    56    95    94    1
    57    95    96    1
    58    79    80   ar
    59    76    78   ar
    60    72    73    1
    61    72    71    1
    62    73    74    2
    63    80    78   ar
    64    66    65    2
    65   126   127    1
    66   161   159   am
    67    71    65   am
    68    65    64    1
    69    43    42    1
    70   128   127   ar
    71   127   129   ar
    72   138   139    1
    73    30    28    1
    74   159   160    2
    75   159   158    1
    76   142   139    1
    77   142   143    1
    78   145   143    1
    79   140   139    1
    80   140   141    2
    81    63    64    1
    82    64    67    1
    83    42    39    1
    84     4     3    2
    85    68    67    1
    86    68    70    1
    87    28    27    1
    88     5     6    1
    89     5     2    1
    90   158   155    1
    91   143   144    1
    92    67    69    1
    93    15    14    2
    94    39    38    1
    95    39    40    1
    96    22    20    1
    97   153   152    1
    98     3     2    1
    99     3     8   am
   100    14    13    1
   101    14    16   am
   102     6     7    1
   103    13    12    1
   104    12    10   am
   105     2     1    1
   106    17    16    1
   107    17    20    1
   108    17    18    1
   109    27    29    1
   110    27    24    1
   111    23    18   am
   112    23    24    1
   113    10     9    1
   114    10    11    2
   115    20    21    1
   116   155   154    1
   117   155   156    1
   118     9     8    1
   119   154   148   am
   120    40    44   am
   121    40    41    2
   122    18    19    2
   123    24    25    1
   124    44    45    1
   125     7     1    1
   126   169   167    1
   127   150   151    1
   128   150   147    1
   129   152   151    1
   130   146   147    1
   131   156   157    2
   132   148   147    1
   133   148   149    2
   134    37    35    1
   135    31    25   am
   136    31    32    1
   137    48    45    1
   138    48    49    1
   139    51    50    1
   140    36    35    1
   141    25    26    2
   142    45    46    1
   143   167   166    1
   144   167   168    1
   145    35    32    1
   146   166   163    1
   147    32    33    1
   148    49    50    1
   149    46    47    2
   150    56    57    1
   151    56    53    1
   152    52    53    1
   153    33    34    2
   154    58    57   ar
   155    58    60   ar
   156   163   164    1
   157   163   162    1
   158   164   165    2
   159    57    59   ar
   160    53    54    1
   161    60    62   ar
   162    59    61   ar
   163    62    61   ar
   164    54    55    2
