@<TRIPOS>MOLECULE
tmp/2zl4I00.pdb
 107 103 0 0 0
SMALL
GASTEIGER

@<TRIPOS>ATOM
      1  N         48.7680   60.3340  119.7100 N.3    49  PRO49      -0.2102
      2  CA        48.1040   60.4390  121.0090 C.3    49  PRO49       0.1504
      3  C         48.1510   61.9020  121.4430 C.2    49  PRO49       0.2576
      4  O         47.6880   62.2660  122.5260 O.2    49  PRO49      -0.2718
      5  CB        48.9420   59.5220  121.9000 C.3    49  PRO49       0.0282
      6  CG        50.3200   59.7220  121.3710 C.3    49  PRO49       0.0208
      7  CD        50.1040   59.7230  119.8480 C.3    49  PRO49       0.0893
      8  N         48.6990   62.7380  120.5640 N.am   50  GLY50      -0.1943
      9  CA        48.8110   64.1550  120.8510 C.3    50  GLY50       0.2014
     10  C         50.2510   64.6070  121.0270 C.2    50  GLY50       0.2639
     11  O         51.1890   63.8930  120.6500 O.2    50  GLY50      -0.2714
     12  N         50.4370   65.7930  121.6000 N.am   51  GLY51      -0.1939
     13  CA        51.7800   66.2930  121.8040 C.3    51  GLY51       0.2014
     14  C         51.8540   67.7730  122.1170 C.2    51  GLY51       0.2639
     15  O         50.8610   68.3960  122.4950 O.2    51  GLY51      -0.2714
     16  N         53.0500   68.3300  121.9550 N.am   52  VAL52      -0.1963
     17  CA        53.3170   69.7360  122.2180 C.3    52  VAL52       0.1727
     18  C         52.4370   70.5930  121.3140 C.2    52  VAL52       0.2616
     19  O         52.2510   70.2820  120.1370 O.2    52  VAL52      -0.2715
     20  CB        54.8170   70.0390  121.9760 C.3    52  VAL52       0.0290
     21  CG1       55.1440   71.4750  122.3680 C.3    52  VAL52       0.0023
     22  CG2       55.6730   69.0400  122.7660 C.3    52  VAL52       0.0023
     23  N         51.8900   71.6710  121.8650 N.am   53  ILE53      -0.1963
     24  CA        51.0010   72.5360  121.0980 C.3    53  ILE53       0.1727
     25  C         51.6780   73.4040  120.0450 C.2    53  ILE53       0.2616
     26  O         51.2900   73.3780  118.8790 O.2    53  ILE53      -0.2715
     27  CB        50.1670   73.4440  122.0300 C.3    53  ILE53       0.0290
     28  CG1       49.3220   72.5740  122.9850 C.3    53  ILE53       0.0022
     29  CG2       49.2720   74.3520  121.1910 C.3    53  ILE53       0.0023
     30  CD1       48.7000   73.3320  124.1510 C.3    53  ILE53       0.0001
     31  N         52.6810   74.1820  120.4350 N.am   54  THR54      -0.1951
     32  CA        53.3320   75.0170  119.4420 C.3    54  THR54       0.1897
     33  C         53.8510   74.1300  118.3150 C.2    54  THR54       0.2313
     34  O         53.8930   74.5390  117.1530 O.2    54  THR54      -0.2863
     35  CB        54.4850   75.8420  120.0550 C.3    54  THR54       0.1794
     36  OG1       55.4240   74.9700  120.6920 O.3    54  THR54      -0.2208
     37  CG2       53.9410   76.8240  121.0680 C.3    54  THR54       0.0378
     38  N         43.7420   64.5810  121.0740 N.3    80  ALA80      -0.1231
     39  CA        44.1440   65.9320  121.4050 C.3    80  ALA80       0.1694
     40  C         44.7460   66.6870  120.2210 C.2    80  ALA80       0.2591
     41  O         44.0560   66.9290  119.2290 O.2    80  ALA80      -0.2718
     42  CB        45.1150   65.8930  122.5760 C.3    80  ALA80       0.0304
     43  N         46.0220   67.0560  120.3120 N.am   81  MET81      -0.1979
     44  CA        46.6480   67.8080  119.2310 C.3    81  MET81       0.1605
     45  C         46.5710   67.0240  117.9260 C.2    81  MET81       0.2287
     46  O         46.6330   67.5980  116.8360 O.2    81  MET81      -0.2864
     47  CB        48.0990   68.1500  119.5860 C.3    81  MET81       0.0413
     48  CG        48.6860   69.2920  118.7580 C.3    81  MET81       0.0598
     49  SD        47.6910   70.8220  118.8180 S.3    81  MET81      -0.1393
     50  CE        47.8660   71.2340  120.4930 C.3    81  MET81       0.0692
     51  N         40.5780   67.5780  124.1020 N.3   105  HIS105     -0.1241
     52  CA        40.6150   68.0500  125.4830 C.3   105  HIS105      0.1621
     53  C         41.4180   69.3440  125.6120 C.2   105  HIS105      0.2264
     54  O         42.1350   69.7320  124.6870 O.2   105  HIS105     -0.2867
     55  CB        41.1870   66.9670  126.4100 C.3   105  HIS105      0.0745
     56  CG        42.6530   66.6950  126.2260 C.ar  105  HIS105      0.0817
     57  ND1       43.2550   65.5460  126.6990 N.ar  105  HIS105     -0.2268
     58  CD2       43.6400   67.4250  125.6520 C.ar  105  HIS105      0.1154
     59  CE1       44.5460   65.5810  126.4240 C.ar  105  HIS105      0.1986
     60  NE2       44.8060   66.7110  125.7900 N.ar  105  HIS105     -0.2212
     61  N         44.3580   71.9500  126.9350 N.3   107  PRO107     -0.2102
     62  CA        45.7970   71.7440  127.1040 C.3   107  PRO107      0.1504
     63  C         46.2560   71.3960  128.5290 C.2   107  PRO107      0.2576
     64  O         45.5700   71.6750  129.5230 O.2   107  PRO107     -0.2718
     65  CB        46.3920   73.0550  126.5890 C.3   107  PRO107      0.0282
     66  CG        45.3130   74.0430  126.8540 C.3   107  PRO107      0.0208
     67  CD        44.0770   73.3050  126.4420 C.3   107  PRO107      0.0893
     68  N         47.4210   70.7620  128.6040 N.am  108  LEU108     -0.1966
     69  CA        48.0160   70.3640  129.8670 C.3   108  LEU108      0.1731
     70  C         49.3910   71.0050  129.9400 C.2   108  LEU108      0.2656
     71  O         50.0610   71.1610  128.9170 O.2   108  LEU108     -0.2711
     72  CB        48.1490   68.8390  129.9260 C.3   108  LEU108      0.0311
     73  CG        46.8280   68.0610  129.9350 C.3   108  LEU108      0.0022
     74  CD1       46.8790   66.9140  128.9320 C.3   108  LEU108      0.0001
     75  CD2       46.5520   67.5510  131.3500 C.3   108  LEU108      0.0001
     76  N         49.8110   71.3740  131.1450 N.am  109  GLY109     -0.1716
     77  CA        51.1140   71.9860  131.3000 C.2   109  GLY109      0.1480
     78  C         51.6580   71.9970  132.7180 C.2   109  GLY109      0.2821
     79  O         51.2630   71.2080  133.5770 O.2   109  GLY109     -0.2669
     80  N         52.5850   72.9120  132.9620 N.am  110  GLY110     -0.1920
     81  CA        53.1770   73.0240  134.2780 C.3   110  GLY110      0.1872
     82  C         53.8890   74.3500  134.4040 C.2   110  GLY110      0.2310
     83  O         54.2080   74.9760  133.3970 O.2   110  GLY110     -0.2863
     84  N         49.1160   79.5850  128.7660 N.3   125  ILE125     -0.1245
     85  CA        48.5100   78.2950  128.4800 C.3   125  ILE125      0.1561
     86  C         47.0160   78.4980  128.2350 C.2   125  ILE125      0.2260
     87  O         46.4170   77.8060  127.4050 O.2   125  ILE125     -0.2867
     88  CB        48.7210   77.2740  129.6200 C.3   125  ILE125      0.0252
     89  CG1       48.0150   75.9670  129.2640 C.3   125  ILE125      0.0019
     90  CG2       48.1620   77.8020  130.9180 C.3   125  ILE125      0.0019
     91  CD1       48.2020   74.8700  130.2730 C.3   125  ILE125      0.0001
     92  N         46.5970   79.6730  124.7700 N.3   128  LEU128     -0.1245
     93  CA        46.7050   78.5470  123.8470 C.3   128  LEU128      0.1561
     94  C         45.4390   77.6950  123.8970 C.2   128  LEU128      0.2260
     95  O         45.1030   77.0080  122.9390 O.2   128  LEU128     -0.2867
     96  CB        47.9270   77.6840  124.1860 C.3   128  LEU128      0.0270
     97  CG        49.3170   78.2900  123.9250 C.3   128  LEU128      0.0019
     98  CD1       50.3940   77.2990  124.3680 C.3   128  LEU128      0.0001
     99  CD2       49.4790   78.6360  122.4400 C.3   128  LEU128      0.0001
    100  N         43.0060   77.2570  120.5320 N.3   132  MET132     -0.1245
    101  CA        42.6880   75.9630  119.9530 C.3   132  MET132      0.1570
    102  C         41.1970   75.6930  119.9430 C.2   132  MET132      0.2261
    103  O         40.6750   75.0630  119.0160 O.2   132  MET132     -0.2867
    104  CB        43.4010   74.8570  120.7150 C.3   132  MET132      0.0387
    105  CG        44.8250   74.6210  120.2570 C.3   132  MET132      0.0595
    106  SD        45.6350   73.4560  121.3580 S.3   132  MET132     -0.1393
    107  CE        44.4170   72.0510  121.3500 C.3   132  MET132      0.0692
@<TRIPOS>BOND
     1    46    45    2
     2    34    33    2
     3    45    44    1
     4    33    32    1
     5    48    49    1
     6    48    47    1
     7    49    50    1
     8    26    25    2
     9   103   102    2
    10    41    40    2
    11    44    47    1
    12    44    43    1
    13    32    35    1
    14    32    31    1
    15     1     7    1
    16     1     2    1
    17     7     6    1
    18   102   101    1
    19   101   100    1
    20   101   104    1
    21    25    31   am
    22    25    24    1
    23    35    36    1
    24    35    37    1
    25    19    18    2
    26    40    43   am
    27    40    39    1
    28   105   104    1
    29   105   106    1
    30     8     9    1
    31     8     3   am
    32    11    10    2
    33     9    10    1
    34     2     3    1
    35     2     5    1
    36    10    12   am
    37    38    39    1
    38    24    23    1
    39    24    27    1
    40    29    27    1
    41    18    23   am
    42    18    17    1
    43   107   106    1
    44     6     5    1
    45    39    42    1
    46     3     4    2
    47    12    13    1
    48    13    14    1
    49    16    14   am
    50    16    17    1
    51    20    17    1
    52    20    21    1
    53    20    22    1
    54    27    28    1
    55    14    15    2
    56    99    97    1
    57    95    94    2
    58    28    30    1
    59    93    94    1
    60    93    96    1
    61    93    92    1
    62    97    96    1
    63    97    98    1
    64    51    52    1
    65    54    53    2
    66    52    53    1
    67    52    55    1
    68    58    60   ar
    69    58    56   ar
    70    60    59   ar
    71    56    55    1
    72    56    57   ar
    73    59    57   ar
    74    67    66    1
    75    67    61    1
    76    65    66    1
    77    65    62    1
    78    61    62    1
    79    62    63    1
    80    87    86    2
    81    86    85    1
    82    85    84    1
    83    85    88    1
    84    63    68   am
    85    63    64    2
    86    68    69    1
    87    71    70    2
    88    74    73    1
    89    89    88    1
    90    89    91    1
    91    88    90    1
    92    69    72    1
    93    69    70    1
    94    72    73    1
    95    73    75    1
    96    70    76    1
    97    76    77    2
    98    77    78    1
    99    78    80   am
   100    78    79    2
   101    80    81    1
   102    83    82    2
   103    81    82    1
