@<TRIPOS>MOLECULE
tmp/2zl6B00.pdb
 82 81 0 0 0
SMALL
GASTEIGER

@<TRIPOS>ATOM
      1  N         38.7740   36.9360  -18.3640 N.3    98  ASP98      -0.1239
      2  CA        38.2780   37.7060  -17.2180 C.3    98  ASP98       0.1674
      3  C         38.3270   36.7910  -15.9910 C.2    98  ASP98       0.2266
      4  O         38.0450   35.5810  -16.0720 O.2    98  ASP98      -0.2867
      5  CB        36.8330   38.1860  -17.4430 C.3    98  ASP98       0.1410
      6  CG        36.7350   39.4750  -18.2730 C.2    98  ASP98       0.3668
      7  OD1       37.7370   39.9060  -18.8700 O.co2  98  ASP98      -0.2456
      8  OD2       35.6230   40.0210  -18.2850 O.co2  98  ASP98      -0.2456
      9  N         36.9490   35.9520  -12.0140 N.3   100  HIS100     -0.1241
     10  CA        35.8630   36.1620  -11.0590 C.3   100  HIS100      0.1621
     11  C         36.3950   35.6960   -9.7390 C.2   100  HIS100      0.2264
     12  O         36.6190   34.5060   -9.5140 O.2   100  HIS100     -0.2867
     13  CB        34.5860   35.4990  -11.5640 C.3   100  HIS100      0.0745
     14  CG        34.2410   36.0030  -12.9170 C.ar  100  HIS100      0.0817
     15  ND1       34.5420   35.3280  -14.0860 N.ar  100  HIS100     -0.2268
     16  CD2       33.7340   37.1980  -13.2900 C.ar  100  HIS100      0.1154
     17  CE1       34.2190   36.0910  -15.1200 C.ar  100  HIS100      0.1986
     18  NE2       33.7340   37.2300  -14.6610 N.ar  100  HIS100     -0.2212
     19  N         31.2980   38.4980   -5.5500 N.3   113  GLN113     -0.1245
     20  CA        32.0380   38.2100   -6.7660 C.3   113  GLN113      0.1566
     21  C         32.6350   39.4870   -7.3410 C.2   113  GLN113      0.2260
     22  O         31.9150   40.4320   -7.6670 O.2   113  GLN113     -0.2867
     23  CB        31.1420   37.5270   -7.7850 C.3   113  GLN113      0.0367
     24  CG        31.8440   37.1600   -9.0870 C.3   113  GLN113      0.0905
     25  CD        30.8730   36.5000  -10.0370 C.2   113  GLN113      0.2608
     26  OE1       30.4620   35.3440   -9.8200 O.2   113  GLN113     -0.2717
     27  NE2       30.4660   37.2250  -11.0750 N.am  113  GLN113     -0.0878
     28  N         34.5440   40.9770  -10.4400 N.3   115  ASP115     -0.1239
     29  CA        34.7810   40.6990  -11.8600 C.3   115  ASP115      0.1674
     30  C         35.9470   41.5250  -12.3740 C.2   115  ASP115      0.2266
     31  O         35.9060   42.7690  -12.3360 O.2   115  ASP115     -0.2867
     32  CB        33.5190   41.0060  -12.6670 C.3   115  ASP115      0.1410
     33  CG        32.2930   40.2530  -12.1510 C.2   115  ASP115      0.3668
     34  OD1       32.4580   39.0740  -11.7670 O.co2 115  ASP115     -0.2456
     35  OD2       31.1750   40.8200  -12.1310 O.co2 115  ASP115     -0.2456
     36  N         36.2830   31.4050  -10.6660 N.3   146  TRP146     -0.1241
     37  CA        35.9960   30.9150  -12.0090 C.3   146  TRP146      0.1605
     38  C         36.4530   31.9790  -13.0120 C.2   146  TRP146      0.2264
     39  O         36.7540   33.1280  -12.6380 O.2   146  TRP146     -0.2867
     40  CB        34.5060   30.5490  -12.1690 C.3   146  TRP146      0.0550
     41  CG        33.5430   31.6530  -11.9210 C.ar  146  TRP146      0.0003
     42  CD1       33.1250   32.1260  -10.6980 C.ar  146  TRP146      0.0946
     43  CD2       32.8210   32.3740  -12.9080 C.ar  146  TRP146      0.0152
     44  NE1       32.2090   33.1300  -10.8770 N.ar  146  TRP146     -0.2442
     45  CE2       32.0030   33.3070  -12.2260 C.ar  146  TRP146      0.0810
     46  CE3       32.7900   32.3370  -14.3120 C.ar  146  TRP146      0.0012
     47  CZ2       31.1530   34.1890  -12.8980 C.ar  146  TRP146      0.0191
     48  CZ3       31.9520   33.2300  -14.9910 C.ar  146  TRP146      0.0001
     49  CH2       31.1470   34.1440  -14.2750 C.ar  146  TRP146      0.0015
     50  N         36.1200   33.5190  -17.3710 N.3   148  SER148     -0.1203
     51  CA        35.3090   33.6220  -18.5780 C.3   148  SER148      0.2005
     52  C         36.1260   34.3170  -19.6660 C.2   148  SER148      0.2461
     53  O         37.2500   34.7780  -19.4250 O.2   148  SER148     -0.2732
     54  CB        34.0280   34.3880  -18.2790 C.3   148  SER148      0.2103
     55  OG        34.3340   35.6960  -17.8060 O.3   148  SER148     -0.2182
     56  N         35.5650   34.3760  -20.9000 N.am  149  PRO149     -0.2718
     57  CA        36.3100   35.0280  -21.9720 C.3   149  PRO149      0.1520
     58  C         36.6420   36.4810  -21.6400 C.2   149  PRO149      0.2440
     59  O         35.8890   37.1240  -20.9260 O.2   149  PRO149     -0.2731
     60  CB        35.3490   34.9230  -23.1820 C.3   149  PRO149      0.0310
     61  CG        34.5560   33.7140  -22.9100 C.3   149  PRO149      0.0237
     62  CD        34.3080   33.7840  -21.3910 C.3   149  PRO149      0.0939
     63  N         37.7620   36.9910  -22.1580 N.am  150  PRO150     -0.2716
     64  CA        38.1000   38.4000  -21.8710 C.3   150  PRO150      0.1536
     65  C         37.0280   39.3520  -22.3590 C.2   150  PRO150      0.2599
     66  O         36.3990   39.1260  -23.4170 O.2   150  PRO150     -0.2715
     67  CB        39.3800   38.6480  -22.6760 C.3   150  PRO150      0.0310
     68  CG        39.9090   37.2830  -23.0340 C.3   150  PRO150      0.0237
     69  CD        38.7560   36.3310  -23.0270 C.3   150  PRO150      0.0939
     70  N         36.8420   40.4290  -21.6080 N.am  151  SER151     -0.1950
     71  CA        35.9260   41.4820  -22.0240 C.3   151  SER151      0.1924
     72  C         36.4980   42.2300  -23.2240 C.2   151  SER151      0.2314
     73  O         35.7360   42.7240  -24.0660 O.2   151  SER151     -0.2863
     74  CB        35.6620   42.4320  -20.8650 C.3   151  SER151      0.2116
     75  OG        34.7540   41.8480  -19.9350 O.3   151  SER151     -0.2180
     76  N         32.2310   29.1790  -18.2210 N.3   199  PRO199     -0.2116
     77  CA        31.3990   28.7500  -19.3660 C.3   199  PRO199      0.1372
     78  C         32.1730   28.1750  -20.5710 C.2   199  PRO199      0.2244
     79  O         31.9200   28.5710  -21.7210 O.2   199  PRO199     -0.2868
     80  CB        30.6860   30.0470  -19.7510 C.3   199  PRO199      0.0268
     81  CG        31.7360   31.1360  -19.4320 C.3   199  PRO199      0.0207
     82  CD        32.3020   30.6610  -18.1110 C.3   199  PRO199      0.0892
@<TRIPOS>BOND
     1    73    72    2
     2    66    65    2
     3    72    71    1
     4    60    61    1
     5    60    57    1
     6    68    69    1
     7    68    67    1
     8    69    63    1
     9    61    62    1
    10    67    64    1
    11    65    64    1
    12    65    70   am
    13    63    64    1
    14    63    58   am
    15    71    70    1
    16    71    74    1
    17    57    58    1
    18    57    56    1
    19    79    78    2
    20    58    59    2
    21    62    56    1
    22    56    52   am
    23    74    75    1
    24    78    77    1
    25    80    81    1
    26    80    77    1
    27    52    53    2
    28    52    51    1
    29    81    82    1
    30    77    76    1
    31     7     6   ar
    32    51    54    1
    33    51    50    1
    34     1     2    1
    35     8     6   ar
    36    54    55    1
    37     6     5    1
    38    76    82    1
    39     5     2    1
    40     2     3    1
    41     4     3    2
    42    17    18   ar
    43    17    15   ar
    44    48    46   ar
    45    48    49   ar
    46    18    16   ar
    47    46    43   ar
    48    49    47   ar
    49    15    14   ar
    50    16    14   ar
    51    38    39    2
    52    38    37    1
    53    14    13    1
    54    43    45   ar
    55    43    41   ar
    56    47    45   ar
    57    32    33    1
    58    32    29    1
    59    30    31    2
    60    30    29    1
    61    45    44   ar
    62    40    37    1
    63    40    41    1
    64    33    35   ar
    65    33    34   ar
    66     9    10    1
    67    37    36    1
    68    41    42   ar
    69    29    28    1
    70    13    10    1
    71    27    25   am
    72    10    11    1
    73    44    42   ar
    74    25    26    2
    75    25    24    1
    76    11    12    2
    77    24    23    1
    78    23    20    1
    79    22    21    2
    80    21    20    1
    81    20    19    1
