@<TRIPOS>MOLECULE
tmp/2zlfA00.pdb
 160 153 0 0 0
SMALL
GASTEIGER

@<TRIPOS>ATOM
      1  N          7.4110   23.2970    9.7690 N.3   267  VAL267     -0.1231
      2  CA         7.8610   23.5900    8.4140 C.3   267  VAL267      0.1692
      3  C          8.6460   22.4290    7.8290 C.2   267  VAL267      0.2591
      4  O          8.3130   21.9340    6.7550 O.2   267  VAL267     -0.2718
      5  CB         8.7300   24.8610    8.3870 C.3   267  VAL267      0.0266
      6  CG1        9.2360   25.1400    6.9830 C.3   267  VAL267      0.0020
      7  CG2        7.9310   26.0260    8.9250 C.3   267  VAL267      0.0020
      8  N          9.6750   21.9970    8.5530 N.am  268  GLU268     -0.1979
      9  CA        10.5610   20.9170    8.1260 C.3   268  GLU268      0.1602
     10  C          9.8250   19.6250    7.7800 C.2   268  GLU268      0.2287
     11  O         10.0680   19.0160    6.7340 O.2   268  GLU268     -0.2864
     12  CB        11.5460   20.6070    9.2340 C.3   268  GLU268      0.0415
     13  CG        12.7100   19.7900    8.7730 C.3   268  GLU268      0.1163
     14  CD        13.7150   19.5520    9.8740 C.2   268  GLU268      0.3649
     15  OE1       13.3400   19.6930   11.0590 O.co2 268  GLU268     -0.2457
     16  OE2       14.8730   19.2140    9.5510 O.co2 268  GLU268     -0.2457
     17  N          4.2110   25.4750    5.6140 N.3   311  GLN311     -0.1245
     18  CA         5.0690   25.9210    4.5270 C.3   311  GLN311      0.1566
     19  C          4.4380   27.0580    3.7140 C.2   311  GLN311      0.2260
     20  O          5.1180   27.7380    2.9350 O.2   311  GLN311     -0.2867
     21  CB         5.5470   24.7280    3.6600 C.3   311  GLN311      0.0367
     22  CG         6.5180   23.7890    4.4160 C.3   311  GLN311      0.0905
     23  CD         7.1150   22.6570    3.5620 C.2   311  GLN311      0.2608
     24  OE1        7.0640   22.6880    2.3340 O.2   311  GLN311     -0.2717
     25  NE2        7.6840   21.6550    4.2250 N.am  311  GLN311     -0.0878
     26  N          5.9170   29.9170    5.7210 N.3   314  TRP314     -0.1241
     27  CA         7.3300   29.8250    5.4220 C.3   314  TRP314      0.1605
     28  C          7.6340   30.4300    4.0730 C.2   314  TRP314      0.2264
     29  O          8.5280   31.2590    3.9490 O.2   314  TRP314     -0.2867
     30  CB         7.7970   28.3680    5.4530 C.3   314  TRP314      0.0550
     31  CG         9.2410   28.2420    5.1840 C.ar  314  TRP314      0.0003
     32  CD1        9.8310   27.8520    4.0140 C.ar  314  TRP314      0.0946
     33  CD2       10.3100   28.5450    6.0890 C.ar  314  TRP314      0.0152
     34  NE1       11.2030   27.8750    4.1390 N.ar  314  TRP314     -0.2442
     35  CE2       11.5260   28.2990    5.4010 C.ar  314  TRP314      0.0810
     36  CE3       10.3610   28.9960    7.4160 C.ar  314  TRP314      0.0012
     37  CZ2       12.7800   28.4880    5.9970 C.ar  314  TRP314      0.0191
     38  CZ3       11.6080   29.1750    8.0090 C.ar  314  TRP314      0.0001
     39  CH2       12.8030   28.9240    7.2930 C.ar  314  TRP314      0.0015
     40  N         32.2000   34.0770   -0.2690 N.3   607  ILE607     -0.1231
     41  CA        32.4130   33.2290    0.8890 C.3   607  ILE607      0.1692
     42  C         31.1500   32.4130    1.1380 C.2   607  ILE607      0.2593
     43  O         30.0510   32.8860    0.9160 O.2   607  ILE607     -0.2718
     44  CB        32.8030   34.0810    2.1240 C.3   607  ILE607      0.0266
     45  CG1       34.1870   34.7100    1.8890 C.3   607  ILE607      0.0019
     46  CG2       32.7470   33.2500    3.4150 C.3   607  ILE607      0.0020
     47  CD1       34.6900   35.6490    2.9800 C.3   607  ILE607      0.0001
     48  N         31.3000   31.1690    1.5640 N.am  608  SER608     -0.1938
     49  CA        30.1290   30.3360    1.8010 C.3   608  SER608      0.2055
     50  C         29.4150   30.7510    3.0910 C.2   608  SER608      0.2643
     51  O         30.0380   30.8850    4.1510 O.2   608  SER608     -0.2714
     52  CB        30.5080   28.8580    1.8340 C.3   608  SER608      0.2130
     53  OG        29.5060   28.1080    2.4920 O.3   608  SER608     -0.2179
     54  N         28.1080   30.9700    2.9930 N.am  609  GLN609     -0.1963
     55  CA        27.3430   31.4080    4.1520 C.3   609  GLN609      0.1733
     56  C         27.3480   30.3150    5.2140 C.2   609  GLN609      0.2616
     57  O         27.0940   30.5670    6.3870 O.2   609  GLN609     -0.2715
     58  CB        25.9170   31.8280    3.7600 C.3   609  GLN609      0.0408
     59  CG        25.8610   33.0340    2.8170 C.3   609  GLN609      0.0908
     60  CD        26.7880   34.1710    3.2410 C.2   609  GLN609      0.2608
     61  OE1       27.8540   34.3840    2.6550 O.2   609  GLN609     -0.2717
     62  NE2       26.3880   34.9000    4.2670 N.am  609  GLN609     -0.0878
     63  N         27.6770   29.1040    4.7890 N.am  610  LYS610     -0.1977
     64  CA        27.8770   27.9960    5.7060 C.3   610  LYS610      0.1596
     65  C         29.0860   28.2870    6.5780 C.2   610  LYS610      0.2287
     66  O         29.0720   28.0670    7.7870 O.2   610  LYS610     -0.2864
     67  CB        28.1000   26.7280    4.9090 C.3   610  LYS610      0.0298
     68  CG        27.7000   25.4710    5.6130 C.3   610  LYS610      0.0038
     69  CD        26.9960   24.5680    4.6100 C.3   610  LYS610      0.0206
     70  CE        26.5440   23.2650    5.2320 C.3   610  LYS610      0.1093
     71  NZ        25.7890   22.4400    4.2390 N.3   610  LYS610     -0.1314
     72  N         28.0740   30.9690    8.8950 N.3   613  ILE613     -0.1245
     73  CA        27.2280   30.4890    9.9640 C.3   613  ILE613      0.1561
     74  C         28.0240   29.6950   10.9970 C.2   613  ILE613      0.2260
     75  O         27.7660   29.8100   12.1990 O.2   613  ILE613     -0.2867
     76  CB        26.0080   29.7020    9.4120 C.3   613  ILE613      0.0252
     77  CG1       25.0180   30.6790    8.7720 C.3   613  ILE613      0.0019
     78  CG2       25.3220   28.8830   10.5080 C.3   613  ILE613      0.0019
     79  CD1       24.0300   30.0280    7.8390 C.3   613  ILE613      0.0001
     80  N         23.3590   36.6330    0.0450 N.3   633  LEU633     -0.1245
     81  CA        23.0870   35.6170   -0.9680 C.3   633  LEU633      0.1561
     82  C         23.4110   36.1020   -2.3640 C.2   633  LEU633      0.2260
     83  O         22.9520   37.1600   -2.7950 O.2   633  LEU633     -0.2867
     84  CB        21.6380   35.1320   -0.9240 C.3   633  LEU633      0.0270
     85  CG        21.3130   33.9420   -0.0200 C.3   633  LEU633      0.0019
     86  CD1       20.0270   33.2570   -0.4900 C.3   633  LEU633      0.0001
     87  CD2       22.4630   32.9620    0.0090 C.3   633  LEU633      0.0001
     88  N         17.8670   31.8690   -3.9630 N.3   637  THR637     -0.1218
     89  CA        16.8630   30.9280   -4.4250 C.3   637  THR637      0.1862
     90  C         16.1170   30.4960   -3.1840 C.2   637  THR637      0.2287
     91  O         16.6980   30.4450   -2.1040 O.2   637  THR637     -0.2866
     92  CB        17.4800   29.6900   -5.1210 C.3   637  THR637      0.1770
     93  OG1       17.7270   28.6460   -4.1640 O.3   637  THR637     -0.2211
     94  CG2       18.7820   30.0580   -5.8340 C.3   637  THR637      0.0375
     95  N         15.3050   27.7750   -2.0960 N.3   639  GLY639     -0.1210
     96  CA        15.9040   26.6020   -1.4810 C.3   639  GLY639      0.1956
     97  C         17.2040   26.9330   -0.7760 C.2   639  GLY639      0.2611
     98  O         17.4570   26.4790    0.3340 O.2   639  GLY639     -0.2717
     99  N         18.0380   27.7260   -1.4280 N.am  640  LYS640     -0.1979
    100  CA        19.2290   28.2470   -0.7810 C.3   640  LYS640      0.1596
    101  C         18.8800   28.8520    0.5750 C.2   640  LYS640      0.2287
    102  O         19.5460   28.5980    1.5750 O.2   640  LYS640     -0.2864
    103  CB        19.8740   29.3160   -1.6570 C.3   640  LYS640      0.0298
    104  CG        20.7510   28.7780   -2.7810 C.3   640  LYS640      0.0038
    105  CD        21.3110   29.9230   -3.6200 C.3   640  LYS640      0.0206
    106  CE        22.3310   29.4290   -4.6230 C.3   640  LYS640      0.1093
    107  NZ        22.8370   30.5480   -5.4560 N.3   640  LYS640     -0.1314
    108  N         16.0690   28.5060    2.5050 N.3   642  THR642     -0.1203
    109  CA        15.5350   27.5290    3.4470 C.3   642  THR642      0.1994
    110  C         16.6530   26.7500    4.1160 C.2   642  THR642      0.2619
    111  O         16.5740   26.4320    5.3090 O.2   642  THR642     -0.2717
    112  CB        14.6220   26.5000    2.7480 C.3   642  THR642      0.1784
    113  OG1       13.5750   27.1720    2.0580 O.3   642  THR642     -0.2211
    114  CG2       14.0240   25.5450    3.7550 C.3   642  THR642      0.0376
    115  N         17.6820   26.4290    3.3360 N.am  643  SER643     -0.1937
    116  CA        18.8000   25.6270    3.8280 C.3   643  SER643      0.2055
    117  C         19.6030   26.4680    4.7980 C.2   643  SER643      0.2642
    118  O         19.9850   26.0210    5.8750 O.2   643  SER643     -0.2714
    119  CB        19.7070   25.1860    2.6710 C.3   643  SER643      0.2130
    120  OG        19.0780   24.2350    1.8310 O.3   643  SER643     -0.2179
    121  N         19.8570   27.6990    4.3950 N.am  644  MET644     -0.1976
    122  CA        20.6220   28.6200    5.2090 C.3   644  MET644      0.1605
    123  C         19.9560   28.7980    6.5850 C.2   644  MET644      0.2287
    124  O         20.6240   28.7430    7.6100 O.2   644  MET644     -0.2864
    125  CB        20.7790   29.9330    4.4510 C.3   644  MET644      0.0413
    126  CG        21.6720   30.9560    5.0910 C.3   644  MET644      0.0598
    127  SD        22.3190   32.1470    3.8760 S.3   644  MET644     -0.1393
    128  CE        20.9810   33.3260    3.7370 C.3   644  MET644      0.0692
    129  N         17.6250   26.7330    8.2060 N.3   646  PHE646     -0.1227
    130  CA        17.6130   25.5480    9.0340 C.3   646  PHE646      0.1736
    131  C         19.0250   25.1880    9.5100 C.2   646  PHE646      0.2595
    132  O         19.2170   24.6670   10.5980 O.2   646  PHE646     -0.2718
    133  CB        16.9090   24.4160    8.3070 C.3   646  PHE646      0.0547
    134  CG        15.4090   24.5100    8.3770 C.ar  646  PHE646     -0.0202
    135  CD1       14.7030   25.2450    7.4480 C.ar  646  PHE646     -0.0042
    136  CD2       14.7110   23.8730    9.3930 C.ar  646  PHE646     -0.0042
    137  CE1       13.3300   25.3280    7.5270 C.ar  646  PHE646     -0.0003
    138  CE2       13.3420   23.9530    9.4790 C.ar  646  PHE646     -0.0003
    139  CZ        12.6460   24.6820    8.5470 C.ar  646  PHE646     -0.0000
    140  N         20.0200   25.5270    8.7100 N.am  647  TYR647     -0.1976
    141  CA        21.3970   25.3240    9.1020 C.3   647  TYR647      0.1639
    142  C         21.7780   26.1150   10.3870 C.2   647  TYR647      0.2290
    143  O         22.2260   25.5320   11.3850 O.2   647  TYR647     -0.2864
    144  CB        22.3230   25.6300    7.9180 C.3   647  TYR647      0.0560
    145  CG        23.7360   25.2120    8.1760 C.ar  647  TYR647     -0.0198
    146  CD1       24.0810   23.8600    8.2860 C.ar  647  TYR647     -0.0009
    147  CD2       24.7290   26.1600    8.3430 C.ar  647  TYR647     -0.0009
    148  CE1       25.3820   23.4670    8.5440 C.ar  647  TYR647      0.0417
    149  CE2       26.0290   25.7890    8.6090 C.ar  647  TYR647      0.0417
    150  CZ        26.3600   24.4410    8.7020 C.ar  647  TYR647      0.1957
    151  OH        27.6710   24.1030    8.9590 O.3   647  TYR647     -0.2866
    152  N         19.5730   24.8540   13.3020 N.3   650  LYS650     -0.1245
    153  CA        20.0800   23.6080   13.8790 C.3   650  LYS650      0.1561
    154  C         21.3980   23.8400   14.6280 C.2   650  LYS650      0.2260
    155  O         21.6430   23.1940   15.6480 O.2   650  LYS650     -0.2867
    156  CB        20.2900   22.5510   12.7990 C.3   650  LYS650      0.0271
    157  CG        19.0710   22.1850   12.0000 C.3   650  LYS650      0.0035
    158  CD        18.5260   20.8550   12.4260 C.3   650  LYS650      0.0206
    159  CE        17.4430   20.3720   11.4720 C.3   650  LYS650      0.1093
    160  NZ        17.7700   20.6880   10.0560 N.3   650  LYS650     -0.1314
@<TRIPOS>BOND
     1    94    92    1
     2   107   106    1
     3    92    89    1
     4    92    93    1
     5   106   105    1
     6    89    88    1
     7    89    90    1
     8   105   104    1
     9    90    91    2
    10    83    82    2
    11   104   103    1
    12    82    81    1
    13    95    96    1
    14   103   100    1
    15    96    97    1
    16    99   100    1
    17    99    97   am
    18    81    84    1
    19    81    80    1
    20    84    85    1
    21   100   101    1
    22    97    98    2
    23    86    85    1
    24    40    41    1
    25    85    87    1
    26   101   102    2
    27    41    42    1
    28    41    44    1
    29    43    42    2
    30    42    48   am
    31    48    49    1
    32    49    52    1
    33    49    50    1
    34   120   119    1
    35    52    53    1
    36    45    44    1
    37    45    47    1
    38   113   112    1
    39    44    46    1
    40    24    23    2
    41   108   109    1
    42    61    60    2
    43   119   116    1
    44   112   109    1
    45   112   114    1
    46    59    60    1
    47    59    58    1
    48    20    19    2
    49    54    50   am
    50    54    55    1
    51    50    51    2
    52    60    62   am
    53   115   116    1
    54   115   110   am
    55   109   110    1
    56    23    25   am
    57    23    22    1
    58    21    22    1
    59    21    18    1
    60    19    18    1
    61   128   127    1
    62    58    55    1
    63   116   117    1
    64   127   126    1
    65    29    28    2
    66    32    34   ar
    67    32    31   ar
    68    28    27    1
    69   110   111    2
    70    34    35   ar
    71    55    56    1
    72    71    70    1
    73   121   117   am
    74   121   122    1
    75   125   126    1
    76   125   122    1
    77    18    17    1
    78    69    70    1
    79    69    68    1
    80    63    56   am
    81    63    64    1
    82   117   118    2
    83    67    68    1
    84    67    64    1
    85    31    30    1
    86    31    33   ar
    87   122   123    1
    88    56    57    2
    89    35    37   ar
    90    35    33   ar
    91    27    30    1
    92    27    26    1
    93    64    65    1
    94    37    39   ar
    95    33    36   ar
    96    65    66    2
    97   123   124    2
    98    11    10    2
    99     4     3    2
   100     6     5    1
   101    39    38   ar
   102    36    38   ar
   103   135   137   ar
   104   135   134   ar
   105   137   139   ar
   106    10     9    1
   107     3     2    1
   108     3     8   am
   109    79    77    1
   110   144   145    1
   111   144   141    1
   112     9     8    1
   113     9    12    1
   114   145   146   ar
   115   145   147   ar
   116   129   130    1
   117   146   148   ar
   118   133   134    1
   119   133   130    1
   120   147   149   ar
   121   134   136   ar
   122     5     2    1
   123     5     7    1
   124     2     1    1
   125   148   150   ar
   126   139   138   ar
   127   149   150   ar
   128   150   151    1
   129   140   141    1
   130   140   131   am
   131    77    76    1
   132    13    12    1
   133    13    14    1
   134    72    73    1
   135   130   131    1
   136   141   142    1
   137   136   138   ar
   138    76    73    1
   139    76    78    1
   140   131   132    2
   141    16    14   ar
   142    14    15   ar
   143    73    74    1
   144   160   159    1
   145   142   143    2
   146    74    75    2
   147   159   158    1
   148   157   158    1
   149   157   156    1
   150   156   153    1
   151   152   153    1
   152   153   154    1
   153   154   155    2
