@<TRIPOS>MOLECULE
tmp/2zlgA00.pdb
 132 127 0 0 0
SMALL
GASTEIGER

@<TRIPOS>ATOM
      1  N          6.7830   29.8620    3.2740 N.3   307  TYR307     -0.1241
      2  CA         6.9880   30.3300    1.9090 C.3   307  TYR307      0.1605
      3  C          6.8970   31.8570    1.8340 C.2   307  TYR307      0.2264
      4  O          7.7430   32.5180    1.2260 O.2   307  TYR307     -0.2867
      5  CB         5.9800   29.6830    0.9490 C.3   307  TYR307      0.0534
      6  CG         6.0490   30.2490   -0.4570 C.ar  307  TYR307     -0.0201
      7  CD1        5.5350   31.5130   -0.7480 C.ar  307  TYR307     -0.0009
      8  CD2        6.6370   29.5300   -1.4900 C.ar  307  TYR307     -0.0009
      9  CE1        5.6110   32.0460   -2.0180 C.ar  307  TYR307      0.0417
     10  CE2        6.7140   30.0560   -2.7710 C.ar  307  TYR307      0.0417
     11  CZ         6.1980   31.3150   -3.0250 C.ar  307  TYR307      0.1957
     12  OH         6.2650   31.8480   -4.2910 O.3   307  TYR307     -0.2866
     13  N          9.8990   33.6930    3.3640 N.3   310  LEU310     -0.1245
     14  CA        10.9780   33.6900    2.3840 C.3   310  LEU310      0.1561
     15  C         10.7670   34.7530    1.3130 C.2   310  LEU310      0.2260
     16  O         11.7160   35.4020    0.8900 O.2   310  LEU310     -0.2867
     17  CB        11.0930   32.3200    1.7160 C.3   310  LEU310      0.0270
     18  CG        11.4820   31.1620    2.6350 C.3   310  LEU310      0.0019
     19  CD1       11.4150   29.8270    1.8970 C.3   310  LEU310      0.0001
     20  CD2       12.8530   31.3980    3.2060 C.3   310  LEU310      0.0001
     21  N         31.2190   30.9940    1.3650 N.3   599  SER599     -0.1202
     22  CA        30.0880   30.1350    1.6890 C.3   599  SER599      0.2020
     23  C         29.3640   30.6320    2.9440 C.2   599  SER599      0.2619
     24  O         29.9960   31.0780    3.9050 O.2   599  SER599     -0.2717
     25  CB        30.5420   28.6880    1.8760 C.3   599  SER599      0.2103
     26  OG        29.5460   27.9380    2.5490 O.3   599  SER599     -0.2182
     27  N         28.0380   30.5480    2.9340 N.am  600  GLN600     -0.1965
     28  CA        27.2500   31.0330    4.0550 C.3   600  GLN600      0.1733
     29  C         27.2270   29.9830    5.1470 C.2   600  GLN600      0.2616
     30  O         26.9780   30.2850    6.3170 O.2   600  GLN600     -0.2715
     31  CB        25.8340   31.4000    3.6040 C.3   600  GLN600      0.0408
     32  CG        25.7940   32.6070    2.6610 C.3   600  GLN600      0.0908
     33  CD        26.4960   33.8220    3.2420 C.2   600  GLN600      0.2608
     34  OE1       27.5650   34.2330    2.7720 O.2   600  GLN600     -0.2717
     35  NE2       25.9080   34.3930    4.2830 N.am  600  GLN600     -0.0878
     36  N         27.5050   28.7450    4.7510 N.am  601  LYS601     -0.1977
     37  CA        27.6310   27.6500    5.6960 C.3   601  LYS601      0.1596
     38  C         28.8300   27.9230    6.5850 C.2   601  LYS601      0.2287
     39  O         28.8520   27.5560    7.7610 O.2   601  LYS601     -0.2864
     40  CB        27.8110   26.3290    4.9530 C.3   601  LYS601      0.0298
     41  CG        27.8180   25.1010    5.8500 C.3   601  LYS601      0.0038
     42  CD        28.0740   23.8470    5.0320 C.3   601  LYS601      0.0206
     43  CE        28.3230   22.6410    5.9230 C.3   601  LYS601      0.1093
     44  NZ        29.3150   21.6980    5.3120 N.3   601  LYS601     -0.1314
     45  N         27.8770   30.8550    9.0030 N.3   604  ILE604     -0.1245
     46  CA        27.0560   30.3340   10.0790 C.3   604  ILE604      0.1561
     47  C         27.8710   29.5030   11.0620 C.2   604  ILE604      0.2260
     48  O         27.6520   29.5790   12.2710 O.2   604  ILE604     -0.2867
     49  CB        25.8620   29.5310    9.5180 C.3   604  ILE604      0.0252
     50  CG1       24.8100   30.4960    8.9740 C.3   604  ILE604      0.0019
     51  CG2       25.2560   28.6420   10.5830 C.3   604  ILE604      0.0019
     52  CD1       23.9070   29.8820    7.9370 C.3   604  ILE604      0.0001
     53  N         23.3380   36.6300    0.0810 N.3   624  LEU624     -0.1245
     54  CA        23.0370   35.6600   -0.9660 C.3   624  LEU624      0.1561
     55  C         23.2830   36.1820   -2.3700 C.2   624  LEU624      0.2260
     56  O         23.0770   37.3580   -2.6490 O.2   624  LEU624     -0.2867
     57  CB        21.6000   35.1490   -0.8540 C.3   624  LEU624      0.0270
     58  CG        21.3790   33.9460    0.0670 C.3   624  LEU624      0.0019
     59  CD1       20.0820   33.2220   -0.2920 C.3   624  LEU624      0.0001
     60  CD2       22.5540   33.0020   -0.0210 C.3   624  LEU624      0.0001
     61  N         17.5600   32.0090   -3.4740 N.3   628  THR628     -0.1203
     62  CA        16.7010   30.9440   -3.9550 C.3   628  THR628      0.1994
     63  C         15.9490   30.4450   -2.7430 C.2   628  THR628      0.2618
     64  O         16.4710   30.4850   -1.6270 O.2   628  THR628     -0.2717
     65  CB        17.5060   29.7890   -4.5640 C.3   628  THR628      0.1784
     66  OG1       17.8610   28.8450   -3.5430 O.3   628  THR628     -0.2211
     67  CG2       18.7690   30.3160   -5.2330 C.3   628  THR628      0.0376
     68  N         14.7240   29.9860   -2.9490 N.am  629  MET629     -0.1965
     69  CA        13.8700   29.6350   -1.8280 C.3   629  MET629      0.1736
     70  C         14.4630   28.4520   -1.0660 C.2   629  MET629      0.2617
     71  O         14.3060   28.3420    0.1480 O.2   629  MET629     -0.2715
     72  CB        12.4670   29.2940   -2.3250 C.3   629  MET629      0.0427
     73  CG        11.3400   29.7750   -1.4320 C.3   629  MET629      0.0599
     74  SD        10.3820   31.1090   -2.1830 S.3   629  MET629     -0.1393
     75  CE        11.6860   32.2040   -2.7590 C.3   629  MET629      0.0692
     76  N         15.1520   27.5740   -1.7870 N.am  630  GLY630     -0.1940
     77  CA        15.7310   26.3860   -1.1850 C.3   630  GLY630      0.2014
     78  C         16.9960   26.7010   -0.4160 C.2   630  GLY630      0.2638
     79  O         17.2620   26.1270    0.6320 O.2   630  GLY630     -0.2714
     80  N         17.7740   27.6350   -0.9380 N.am  631  LYS631     -0.1977
     81  CA        19.0090   28.0370   -0.2900 C.3   631  LYS631      0.1596
     82  C         18.7580   28.7840    1.0190 C.2   631  LYS631      0.2287
     83  O         19.4980   28.6030    1.9890 O.2   631  LYS631     -0.2864
     84  CB        19.8330   28.8990   -1.2400 C.3   631  LYS631      0.0298
     85  CG        21.3200   28.8780   -0.9610 C.3   631  LYS631      0.0038
     86  CD        22.0710   29.6210   -2.0520 C.3   631  LYS631      0.0206
     87  CE        21.7170   29.0700   -3.4290 C.3   631  LYS631      0.1093
     88  NZ        22.1270   29.9950   -4.5270 N.3   631  LYS631     -0.1314
     89  N         16.0600   28.4010    2.9200 N.3   633  THR633     -0.1203
     90  CA        15.5830   27.3470    3.8060 C.3   633  THR633      0.1994
     91  C         16.7360   26.5560    4.4110 C.2   633  THR633      0.2619
     92  O         16.7340   26.2450    5.6060 O.2   633  THR633     -0.2717
     93  CB        14.6900   26.3640    3.0480 C.3   633  THR633      0.1784
     94  OG1       13.6960   27.0930    2.3240 O.3   633  THR633     -0.2211
     95  CG2       14.0190   25.3960    4.0140 C.3   633  THR633      0.0376
     96  N         17.7130   26.2220    3.5710 N.am  634  SER634     -0.1937
     97  CA        18.8760   25.4600    4.0110 C.3   634  SER634      0.2055
     98  C         19.6440   26.3080    4.9980 C.2   634  SER634      0.2642
     99  O         20.0770   25.8350    6.0440 O.2   634  SER634     -0.2714
    100  CB        19.7670   25.1200    2.8210 C.3   634  SER634      0.2130
    101  OG        19.1120   24.2340    1.9270 O.3   634  SER634     -0.2179
    102  N         19.7660   27.5820    4.6480 N.am  635  MET635     -0.1976
    103  CA        20.4840   28.5680    5.4350 C.3   635  MET635      0.1605
    104  C         19.8910   28.7260    6.8390 C.2   635  MET635      0.2287
    105  O         20.6170   28.6560    7.8320 O.2   635  MET635     -0.2864
    106  CB        20.4790   29.9030    4.6870 C.3   635  MET635      0.0413
    107  CG        21.7360   30.7160    4.8490 C.3   635  MET635      0.0598
    108  SD        22.0600   31.8230    3.4530 S.3   635  MET635     -0.1393
    109  CE        21.2480   33.3240    3.9690 C.3   635  MET635      0.0692
    110  N         17.6430   26.6990    8.3810 N.3   637  PHE637     -0.1227
    111  CA        17.6270   25.4320    9.0720 C.3   637  PHE637      0.1736
    112  C         19.0030   25.0190    9.5770 C.2   637  PHE637      0.2595
    113  O         19.1360   24.4400   10.6550 O.2   637  PHE637     -0.2718
    114  CB        16.9490   24.3590    8.2260 C.3   637  PHE637      0.0547
    115  CG        15.4560   24.4030    8.3180 C.ar  637  PHE637     -0.0202
    116  CD1       14.7180   25.1810    7.4430 C.ar  637  PHE637     -0.0042
    117  CD2       14.7910   23.6940    9.3070 C.ar  637  PHE637     -0.0042
    118  CE1       13.3490   25.2450    7.5420 C.ar  637  PHE637     -0.0003
    119  CE2       13.4180   23.7520    9.4120 C.ar  637  PHE637     -0.0003
    120  CZ        12.6950   24.5290    8.5270 C.ar  637  PHE637     -0.0000
    121  N         20.0300   25.3530    8.8180 N.am  638  TYR638     -0.1976
    122  CA        21.3780   25.0910    9.2760 C.3   638  TYR638      0.1639
    123  C         21.6680   25.8690   10.5660 C.2   638  TYR638      0.2290
    124  O         22.0940   25.2840   11.5680 O.2   638  TYR638     -0.2864
    125  CB        22.3910   25.4130    8.1800 C.3   638  TYR638      0.0560
    126  CG        23.7740   24.9000    8.4860 C.ar  638  TYR638     -0.0198
    127  CD1       24.0300   23.5300    8.5560 C.ar  638  TYR638     -0.0009
    128  CD2       24.8210   25.7800    8.7120 C.ar  638  TYR638     -0.0009
    129  CE1       25.2880   23.0560    8.8430 C.ar  638  TYR638      0.0417
    130  CE2       26.0860   25.3210    8.9990 C.ar  638  TYR638      0.0417
    131  CZ        26.3170   23.9580    9.0620 C.ar  638  TYR638      0.1957
    132  OH        27.5830   23.5140    9.3460 O.3   638  TYR638     -0.2866
@<TRIPOS>BOND
     1    67    65    1
     2    65    62    1
     3    65    66    1
     4    88    87    1
     5    12    11    1
     6    62    61    1
     7    62    63    1
     8    87    86    1
     9    11    10   ar
    10    11     9   ar
    11    68    63   am
    12    68    69    1
    13    10     8   ar
    14    75    74    1
    15    63    64    2
    16    56    55    2
    17    55    54    1
    18    72    69    1
    19    72    73    1
    20    74    73    1
    21    86    85    1
    22     9     7   ar
    23    69    70    1
    24    76    77    1
    25    76    70   am
    26     8     6   ar
    27    84    85    1
    28    84    81    1
    29    77    78    1
    30    70    71    2
    31    54    57    1
    32    54    53    1
    33    80    78   am
    34    80    81    1
    35    57    58    1
    36     7     6   ar
    37     6     5    1
    38    78    79    2
    39    59    58    1
    40    81    82    1
    41    60    58    1
    42    16    15    2
    43     5     2    1
    44    82    83    2
    45     4     3    2
    46    15    14    1
    47    21    22    1
    48    22    25    1
    49    22    23    1
    50    17    14    1
    51    17    18    1
    52     3     2    1
    53    25    26    1
    54    19    18    1
    55     2     1    1
    56   101   100    1
    57    94    93    1
    58    14    13    1
    59    18    20    1
    60    32    33    1
    61    32    31    1
    62    34    33    2
    63   100    97    1
    64    89    90    1
    65    27    23   am
    66    27    28    1
    67    23    24    2
    68    93    90    1
    69    93    95    1
    70    33    35   am
    71   108   109    1
    72   108   107    1
    73    96    97    1
    74    96    91   am
    75    31    28    1
    76    90    91    1
    77    97    98    1
    78    28    29    1
    79    91    92    2
    80   102    98   am
    81   102   103    1
    82   106   107    1
    83   106   103    1
    84    36    29   am
    85    36    37    1
    86    40    37    1
    87    40    41    1
    88    98    99    2
    89    42    41    1
    90    42    43    1
    91    29    30    2
    92    44    43    1
    93   103   104    1
    94    37    38    1
    95    38    39    2
    96   104   105    2
    97   116   118   ar
    98   116   115   ar
    99   118   120   ar
   100    52    50    1
   101   125   126    1
   102   125   122    1
   103   114   115    1
   104   114   111    1
   105   115   117   ar
   106   110   111    1
   107   126   127   ar
   108   126   128   ar
   109   120   119   ar
   110   127   129   ar
   111   128   130   ar
   112   121   122    1
   113   121   112   am
   114   129   131   ar
   115    50    49    1
   116   130   131   ar
   117    45    46    1
   118   131   132    1
   119   111   112    1
   120   122   123    1
   121   117   119   ar
   122    49    46    1
   123    49    51    1
   124   112   113    2
   125    46    47    1
   126   123   124    2
   127    47    48    2
