@<TRIPOS>MOLECULE
tmp/2zm0A00.pdb
 112 110 0 0 0
SMALL
GASTEIGER

@<TRIPOS>ATOM
      1  N         52.4230   17.5490   12.3520 N.3   104  SER104     -0.1217
      2  CA        52.5040   17.9000   10.9390 C.3   104  SER104      0.1889
      3  C         53.9030   18.1400   10.3790 C.2   104  SER104      0.2288
      4  O         54.0460   18.3790    9.1810 O.2   104  SER104     -0.2866
      5  CB        51.6260   19.1140   10.6370 C.3   104  SER104      0.2089
      6  OG        50.2540   18.7530   10.6660 O.3   104  SER104     -0.2183
      7  N         45.4250   25.2240    4.4640 N.3   207  TYR207     -0.1241
      8  CA        46.1120   24.1790    5.2070 C.3   207  TYR207      0.1605
      9  C         45.1000   23.0820    5.5240 C.2   207  TYR207      0.2264
     10  O         44.0930   23.3310    6.1870 O.2   207  TYR207     -0.2867
     11  CB        46.6920   24.7700    6.4940 C.3   207  TYR207      0.0534
     12  CG        47.6260   23.8500    7.2360 C.ar  207  TYR207     -0.0201
     13  CD1       48.6800   23.2170    6.5790 C.ar  207  TYR207     -0.0009
     14  CD2       47.4650   23.6190    8.6010 C.ar  207  TYR207     -0.0009
     15  CE1       49.5500   22.3730    7.2630 C.ar  207  TYR207      0.0417
     16  CE2       48.3290   22.7780    9.2940 C.ar  207  TYR207      0.0417
     17  CZ        49.3660   22.1590    8.6180 C.ar  207  TYR207      0.1957
     18  OH        50.2100   21.3150    9.2980 O.3   207  TYR207     -0.2866
     19  N         46.9030   33.0780    5.0790 N.3   306  ASP306     -0.1239
     20  CA        46.7750   32.6870    6.4810 C.3   306  ASP306      0.1674
     21  C         47.4500   33.7280    7.3710 C.2   306  ASP306      0.2266
     22  O         48.6760   33.7780    7.4610 O.2   306  ASP306     -0.2867
     23  CB        47.4220   31.3150    6.6970 C.3   306  ASP306      0.1410
     24  CG        47.2780   30.8100    8.1260 C.2   306  ASP306      0.3668
     25  OD1       46.7510   31.5500    8.9800 O.co2 306  ASP306     -0.2456
     26  OD2       47.6990   29.6640    8.3940 O.co2 306  ASP306     -0.2456
     27  N         47.5770   33.9230   10.5040 N.3   308  GLY308     -0.1210
     28  CA        48.3100   33.3060   11.5930 C.3   308  GLY308      0.1956
     29  C         49.7740   33.1290   11.2410 C.2   308  GLY308      0.2611
     30  O         50.6280   33.0150   12.1230 O.2   308  GLY308     -0.2717
     31  N         50.0690   33.1050    9.9440 N.am  309  PHE309     -0.1976
     32  CA        51.4450   32.9870    9.4790 C.3   309  PHE309      0.1639
     33  C         51.9840   34.3470    9.0420 C.2   309  PHE309      0.2290
     34  O         53.0770   34.7410    9.4430 O.2   309  PHE309     -0.2864
     35  CB        51.5210   31.9920    8.3130 C.3   309  PHE309      0.0560
     36  CG        52.9260   31.6080    7.9190 C.ar  309  PHE309     -0.0200
     37  CD1       53.8270   31.1190    8.8600 C.ar  309  PHE309     -0.0042
     38  CD2       53.3330   31.6890    6.5920 C.ar  309  PHE309     -0.0042
     39  CE1       55.1100   30.7100    8.4860 C.ar  309  PHE309     -0.0003
     40  CE2       54.6120   31.2840    6.2060 C.ar  309  PHE309     -0.0003
     41  CZ        55.5020   30.7930    7.1530 C.ar  309  PHE309     -0.0000
     42  N         56.6940   25.1710    5.2160 N.3   323  TRP323     -0.1241
     43  CA        56.3910   26.5790    5.4380 C.3   323  TRP323      0.1605
     44  C         57.6270   27.4170    5.1560 C.2   323  TRP323      0.2264
     45  O         58.7210   27.1170    5.6370 O.2   323  TRP323     -0.2867
     46  CB        55.9450   26.8090    6.8850 C.3   323  TRP323      0.0550
     47  CG        54.6680   26.1120    7.2430 C.ar  323  TRP323      0.0003
     48  CD1       54.5280   24.8200    7.6770 C.ar  323  TRP323      0.0946
     49  CD2       53.3510   26.6740    7.2270 C.ar  323  TRP323      0.0152
     50  NE1       53.2060   24.5490    7.9330 N.ar  323  TRP323     -0.2442
     51  CE2       52.4610   25.6680    7.6680 C.ar  323  TRP323      0.0810
     52  CE3       52.8340   27.9320    6.8840 C.ar  323  TRP323      0.0012
     53  CZ2       51.0820   25.8810    7.7770 C.ar  323  TRP323      0.0191
     54  CZ3       51.4640   28.1450    6.9930 C.ar  323  TRP323      0.0001
     55  CH2       50.6030   27.1240    7.4370 C.ar  323  TRP323      0.0015
     56  N         56.4110   22.3270   10.4050 N.3   335  ILE335     -0.1231
     57  CA        55.7150   22.7620   11.6160 C.3   335  ILE335      0.1692
     58  C         54.6190   21.7560   11.9540 C.2   335  ILE335      0.2593
     59  O         53.9490   21.2410   11.0630 O.2   335  ILE335     -0.2718
     60  CB        55.0620   24.1540   11.4260 C.3   335  ILE335      0.0266
     61  CG1       56.1150   25.1710   10.9690 C.3   335  ILE335      0.0019
     62  CG2       54.4220   24.6140   12.7390 C.3   335  ILE335      0.0020
     63  CD1       55.5560   26.5710   10.6870 C.3   335  ILE335      0.0001
     64  N         54.4470   21.4730   13.2420 N.am  336  GLY336     -0.1942
     65  CA        53.3300   20.6480   13.6720 C.3   336  GLY336      0.2014
     66  C         52.7050   21.1770   14.9520 C.2   336  GLY336      0.2638
     67  O         53.3790   21.8420   15.7420 O.2   336  GLY336     -0.2714
     68  N         51.4260   20.8780   15.1650 N.am  337  ILE337     -0.1977
     69  CA        50.7160   21.3830   16.3390 C.3   337  ILE337      0.1596
     70  C         51.3870   20.9930   17.6560 C.2   337  ILE337      0.2287
     71  O         52.0970   19.9790   17.7400 O.2   337  ILE337     -0.2864
     72  CB        49.2390   20.9040   16.3800 C.3   337  ILE337      0.0276
     73  CG1       49.1700   19.3840   16.2240 C.3   337  ILE337      0.0022
     74  CG2       48.4290   21.5990   15.2960 C.3   337  ILE337      0.0022
     75  CD1       47.7840   18.8200   16.4580 C.3   337  ILE337      0.0001
     76  N         46.8960   22.9310   20.7590 N.3   361  PRO361     -0.2102
     77  CA        47.4830   22.6150   19.4540 C.3   361  PRO361      0.1504
     78  C         48.0130   23.8900   18.7960 C.2   361  PRO361      0.2575
     79  O         49.0750   23.8820   18.1730 O.2   361  PRO361     -0.2718
     80  CB        46.3300   21.9890   18.6700 C.3   361  PRO361      0.0282
     81  CG        45.0890   22.3550   19.4170 C.3   361  PRO361      0.0208
     82  CD        45.4780   22.5420   20.8480 C.3   361  PRO361      0.0893
     83  N         47.2740   24.9850   18.9610 N.am  362  TYR362     -0.1977
     84  CA        47.6680   26.2790   18.4090 C.3   362  TYR362      0.1639
     85  C         47.1160   27.4510   19.2210 C.2   362  TYR362      0.2290
     86  O         45.9310   27.4790   19.5440 O.2   362  TYR362     -0.2864
     87  CB        47.1750   26.4130   16.9640 C.3   362  TYR362      0.0560
     88  CG        47.2140   27.8380   16.4500 C.ar  362  TYR362     -0.0198
     89  CD1       48.3540   28.3430   15.8340 C.ar  362  TYR362     -0.0009
     90  CD2       46.1260   28.6960   16.6280 C.ar  362  TYR362     -0.0009
     91  CE1       48.4180   29.6700   15.4090 C.ar  362  TYR362      0.0417
     92  CE2       46.1800   30.0240   16.2080 C.ar  362  TYR362      0.0417
     93  CZ        47.3300   30.5020   15.6020 C.ar  362  TYR362      0.1957
     94  OH        47.4010   31.8160   15.1980 O.3   362  TYR362     -0.2866
     95  N         52.9500   30.4380   19.2930 N.3   367  HIS367     -0.1241
     96  CA        53.7540   30.6220   18.0930 C.3   367  HIS367      0.1621
     97  C         54.6430   31.8520   18.1690 C.2   367  HIS367      0.2264
     98  O         55.7660   31.8360   17.6760 O.2   367  HIS367     -0.2867
     99  CB        52.8620   30.6850   16.8550 C.3   367  HIS367      0.0745
    100  CG        52.4640   29.3350   16.3460 C.ar  367  HIS367      0.0817
    101  ND1       53.2600   28.5980   15.4940 N.ar  367  HIS367     -0.2268
    102  CD2       51.3800   28.5680   16.6060 C.ar  367  HIS367      0.1154
    103  CE1       52.6830   27.4350   15.2530 C.ar  367  HIS367      0.1986
    104  NE2       51.5410   27.3910   15.9170 N.ar  367  HIS367     -0.2212
    105  N         58.5270   31.0310   17.8000 N.3   371  ASN371     -0.1240
    106  CA        59.2610   31.6630   16.7120 C.3   371  ASN371      0.1653
    107  C         60.3210   32.6260   17.2370 C.2   371  ASN371      0.2266
    108  O         61.3760   32.7910   16.6250 O.2   371  ASN371     -0.2867
    109  CB        58.2880   32.3880   15.7770 C.3   371  ASN371      0.1155
    110  CG        57.5820   31.4350   14.8230 C.2   371  ASN371      0.2627
    111  OD1       58.2060   30.5340   14.2600 O.2   371  ASN371     -0.2716
    112  ND2       56.2830   31.6300   14.6380 N.am  371  ASN371     -0.0877
@<TRIPOS>BOND
     1     7     8    1
     2    19    20    1
     3    44    43    1
     4    44    45    2
     5     8     9    1
     6     8    11    1
     7    42    43    1
     8    43    46    1
     9     9    10    2
    10    40    38   ar
    11    40    41   ar
    12    20    23    1
    13    20    21    1
    14    11    12    1
    15    13    12   ar
    16    13    15   ar
    17    38    36   ar
    18    23    24    1
    19    52    54   ar
    20    52    49   ar
    21    46    47    1
    22    54    55   ar
    23    41    39   ar
    24    49    47   ar
    25    49    51   ar
    26    12    14   ar
    27    47    48   ar
    28    15    17   ar
    29    21    22    2
    30    55    53   ar
    31    51    53   ar
    32    51    50   ar
    33    48    50   ar
    34    36    35    1
    35    36    37   ar
    36    24    26   ar
    37    24    25   ar
    38    35    32    1
    39    39    37   ar
    40    14    16   ar
    41    17    16   ar
    42    17    18    1
    43    33    34    2
    44    33    32    1
    45     4     3    2
    46    32    31    1
    47    31    29   am
    48     3     2    1
    49    56    57    1
    50    27    28    1
    51     5     6    1
    52     5     2    1
    53    63    61    1
    54     2     1    1
    55    61    60    1
    56    59    58    2
    57    29    28    1
    58    29    30    2
    59    60    57    1
    60    60    62    1
    61    57    58    1
    62    58    64   am
    63    64    65    1
    64    65    66    1
    65   111   110    2
    66   112   110   am
    67   110   109    1
    68    66    68   am
    69    66    67    2
    70    68    69    1
    71    94    93    1
    72   103   101   ar
    73   103   104   ar
    74    74    72    1
    75    91    93   ar
    76    91    89   ar
    77   101   100   ar
    78    93    92   ar
    79   109   106    1
    80    89    88   ar
    81   104   102   ar
    82    92    90   ar
    83    73    72    1
    84    73    75    1
    85    69    72    1
    86    69    70    1
    87   100   102   ar
    88   100    99    1
    89    88    90   ar
    90    88    87    1
    91   108   107    2
    92   106   107    1
    93   106   105    1
    94    99    96    1
    95    87    84    1
    96    70    71    2
    97    98    97    2
    98    96    97    1
    99    96    95    1
   100    79    78    2
   101    84    83    1
   102    84    85    1
   103    80    81    1
   104    80    77    1
   105    78    83   am
   106    78    77    1
   107    85    86    2
   108    81    82    1
   109    77    76    1
   110    76    82    1
