@<TRIPOS>MOLECULE
tmp/2zm2A02.pdb
 115 110 0 0 0
SMALL
GASTEIGER

@<TRIPOS>ATOM
      1  N         53.2630   15.2640   14.6310 N.3   103  MET103     -0.1230
      2  CA        52.0830   15.9100   14.0710 C.3   103  MET103      0.1702
      3  C         52.3910   16.3050   12.6240 C.2   103  MET103      0.2593
      4  O         52.9390   15.4990   11.8800 O.2   103  MET103     -0.2718
      5  CB        51.6890   17.1200   14.9260 C.3   103  MET103      0.0401
      6  CG        51.1290   16.7320   16.3010 C.3   103  MET103      0.0596
      7  SD        49.6430   15.6960   16.1900 S.3   103  MET103     -0.1393
      8  CE        49.0160   15.7600   17.8870 C.3   103  MET103      0.0692
      9  N         52.0620   17.5240   12.2120 N.am  104  SER104     -0.1952
     10  CA        52.1810   17.8690   10.7970 C.3   104  SER104      0.1924
     11  C         53.5950   18.0450   10.2470 C.2   104  SER104      0.2314
     12  O         53.7630   18.2460    9.0440 O.2   104  SER104     -0.2863
     13  CB        51.3630   19.1210   10.4800 C.3   104  SER104      0.2116
     14  OG        49.9940   18.8010   10.3360 O.3   104  SER104     -0.2180
     15  N         54.0240   15.8380    7.4680 N.3   107  LYS107     -0.1245
     16  CA        53.6700   16.2240    6.1020 C.3   107  LYS107      0.1561
     17  C         54.9140   16.5030    5.2700 C.2   107  LYS107      0.2260
     18  O         54.9750   16.1510    4.0940 O.2   107  LYS107     -0.2867
     19  CB        52.7840   17.4750    6.1030 C.3   107  LYS107      0.0271
     20  CG        51.4250   17.2970    6.7730 C.3   107  LYS107      0.0035
     21  CD        50.5760   18.5620    6.6310 C.3   107  LYS107      0.0206
     22  CE        49.1040   18.2910    6.9210 C.3   107  LYS107      0.1093
     23  NZ        48.8800   17.7550    8.2970 N.3   107  LYS107     -0.1314
     24  N         36.1400   21.3480    4.6730 N.3   158  TYR158     -0.1241
     25  CA        36.7770   20.5330    5.7020 C.3   158  TYR158      0.1605
     26  C         36.7060   21.2900    7.0220 C.2   158  TYR158      0.2264
     27  O         37.5420   22.1460    7.3090 O.2   158  TYR158     -0.2867
     28  CB        38.2340   20.2590    5.3090 C.3   158  TYR158      0.0534
     29  CG        38.9720   19.2580    6.1780 C.ar  158  TYR158     -0.0201
     30  CD1       39.1630   17.9420    5.7530 C.ar  158  TYR158     -0.0009
     31  CD2       39.5340   19.6430    7.3930 C.ar  158  TYR158     -0.0009
     32  CE1       39.9040   17.0340    6.5150 C.ar  158  TYR158      0.0417
     33  CE2       40.2780   18.7440    8.1640 C.ar  158  TYR158      0.0417
     34  CZ        40.4590   17.4450    7.7160 C.ar  158  TYR158      0.1957
     35  OH        41.2180   16.5690    8.4660 O.3   158  TYR158     -0.2866
     36  N         37.4750   17.1000   10.4540 N.3   169  VAL169     -0.1245
     37  CA        38.7110   16.8700   11.1910 C.3   169  VAL169      0.1561
     38  C         38.5440   15.7020   12.1660 C.2   169  VAL169      0.2260
     39  O         39.4300   14.8590   12.2870 O.2   169  VAL169     -0.2867
     40  CB        39.1570   18.1380   11.9650 C.3   169  VAL169      0.0252
     41  CG1       38.1670   18.4630   13.0720 C.3   169  VAL169      0.0019
     42  CG2       40.5580   17.9370   12.5280 C.3   169  VAL169      0.0019
     43  N         38.0460   12.4710   10.1160 N.3   172  HIS172     -0.1226
     44  CA        39.3510   12.0630    9.6030 C.3   172  HIS172      0.1752
     45  C         40.1040   11.2890   10.6920 C.2   172  HIS172      0.2596
     46  O         40.7130   10.2500   10.4260 O.2   172  HIS172     -0.2718
     47  CB        40.1480   13.3100    9.1890 C.3   172  HIS172      0.0759
     48  CG        41.3210   13.0250    8.3030 C.ar  172  HIS172      0.0818
     49  ND1       42.0200   14.0240    7.6590 N.ar  172  HIS172     -0.2268
     50  CD2       41.9190   11.8620    7.9510 C.ar  172  HIS172      0.1154
     51  CE1       42.9980   13.4890    6.9500 C.ar  172  HIS172      0.1986
     52  NE2       42.9590   12.1780    7.1090 N.ar  172  HIS172     -0.2212
     53  N         40.0470   11.8010   11.9170 N.am  173  GLY173     -0.1957
     54  CA        40.7380   11.1600   13.0230 C.3   173  GLY173      0.1869
     55  C         40.1960    9.7840   13.3500 C.2   173  GLY173      0.2309
     56  O         40.9610    8.8540   13.6170 O.2   173  GLY173     -0.2863
     57  N         41.2360    7.3230   10.8600 N.3   176  ALA176     -0.1245
     58  CA        42.6580    7.0040   10.9820 C.3   176  ALA176      0.1562
     59  C         42.9650    6.1890   12.2380 C.2   176  ALA176      0.2260
     60  O         44.1020    5.7590   12.4430 O.2   176  ALA176     -0.2867
     61  CB        43.4800    8.2930   10.9880 C.3   176  ALA176      0.0290
     62  N         42.6920    7.3440   15.3410 N.3   178  TRP178     -0.1241
     63  CA        43.1870    8.2090   16.4100 C.3   178  TRP178      0.1605
     64  C         42.1580    8.4150   17.5160 C.2   178  TRP178      0.2264
     65  O         42.4910    8.8970   18.5980 O.2   178  TRP178     -0.2867
     66  CB        43.5810    9.5790   15.8490 C.3   178  TRP178      0.0550
     67  CG        44.9340    9.6340   15.2120 C.ar  178  TRP178      0.0003
     68  CD1       45.5240    8.6720   14.4420 C.ar  178  TRP178      0.0946
     69  CD2       45.8520   10.7340   15.2570 C.ar  178  TRP178      0.0152
     70  NE1       46.7560    9.1080   14.0010 N.ar  178  TRP178     -0.2442
     71  CE2       46.9790   10.3710   14.4860 C.ar  178  TRP178      0.0810
     72  CE3       45.8290   11.9920   15.8750 C.ar  178  TRP178      0.0012
     73  CZ2       48.0750   11.2240   14.3130 C.ar  178  TRP178      0.0191
     74  CZ3       46.9200   12.8420   15.7040 C.ar  178  TRP178      0.0001
     75  CH2       48.0280   12.4520   14.9270 C.ar  178  TRP178      0.0015
     76  N         45.1850   25.1570    4.1980 N.3   207  TYR207     -0.1241
     77  CA        45.8620   24.0970    4.9240 C.3   207  TYR207      0.1605
     78  C         44.8520   23.0030    5.2640 C.2   207  TYR207      0.2264
     79  O         43.8550   23.2580    5.9390 O.2   207  TYR207     -0.2867
     80  CB        46.4790   24.6730    6.1970 C.3   207  TYR207      0.0534
     81  CG        47.3620   23.7070    6.9360 C.ar  207  TYR207     -0.0201
     82  CD1       48.5140   23.1940    6.3420 C.ar  207  TYR207     -0.0009
     83  CD2       47.0580   23.3170    8.2370 C.ar  207  TYR207     -0.0009
     84  CE1       49.3420   22.3130    7.0270 C.ar  207  TYR207      0.0417
     85  CE2       47.8800   22.4370    8.9310 C.ar  207  TYR207      0.0417
     86  CZ        49.0170   21.9410    8.3200 C.ar  207  TYR207      0.1957
     87  OH        49.8300   21.0730    9.0070 O.3   207  TYR207     -0.2866
     88  N         44.7640   18.6240    6.1220 N.3   209  SER209     -0.1217
     89  CA        45.4770   17.3630    6.2940 C.3   209  SER209      0.1889
     90  C         45.0710   16.2790    5.3000 C.2   209  SER209      0.2288
     91  O         45.8310   15.3390    5.0550 O.2   209  SER209     -0.2866
     92  CB        45.2910   16.8490    7.7220 C.3   209  SER209      0.2089
     93  OG        45.9900   17.6700    8.6400 O.3   209  SER209     -0.2183
     94  N         49.7390   12.3190    7.1450 N.3   258  HIS258     -0.1226
     95  CA        49.5760   13.7340    7.4370 C.3   258  HIS258      0.1752
     96  C         50.0270   14.1310    8.8440 C.2   258  HIS258      0.2596
     97  O         50.3280   15.2970    9.0860 O.2   258  HIS258     -0.2718
     98  CB        48.1190   14.1610    7.2010 C.3   258  HIS258      0.0759
     99  CG        47.1850   13.8200    8.3220 C.ar  258  HIS258      0.0818
    100  ND1       46.2420   12.8190    8.2260 N.ar  258  HIS258     -0.2268
    101  CD2       47.0170   14.3800    9.5440 C.ar  258  HIS258      0.1154
    102  CE1       45.5320   12.7790    9.3400 C.ar  258  HIS258      0.1986
    103  NE2       45.9820   13.7160   10.1560 N.ar  258  HIS258     -0.2212
    104  N         50.0870   13.1810    9.7760 N.am  259  GLY259     -0.1957
    105  CA        50.3620   13.5750   11.1480 C.3   259  GLY259      0.1869
    106  C         50.8840   12.5420   12.1310 C.2   259  GLY259      0.2309
    107  O         51.1180   12.8770   13.2910 O.2   259  GLY259     -0.2863
    108  N         51.1330   20.8480   15.1820 N.3   337  ILE337     -0.1245
    109  CA        50.4180   21.3940   16.3290 C.3   337  ILE337      0.1561
    110  C         51.0560   21.0080   17.6590 C.2   337  ILE337      0.2260
    111  O         51.7840   20.0120   17.7550 O.2   337  ILE337     -0.2867
    112  CB        48.9290   20.9560   16.3430 C.3   337  ILE337      0.0252
    113  CG1       48.8220   19.4330   16.2740 C.3   337  ILE337      0.0019
    114  CG2       48.1880   21.5970   15.1830 C.3   337  ILE337      0.0019
    115  CD1       47.4020   18.9270   16.4500 C.3   337  ILE337      0.0001
@<TRIPOS>BOND
     1    18    17    2
     2    76    77    1
     3    24    25    1
     4    77    78    1
     5    77    80    1
     6    91    90    2
     7    78    79    2
     8    17    16    1
     9    90    89    1
    10    28    25    1
    11    28    29    1
    12    25    26    1
    13    30    29   ar
    14    30    32   ar
    15    16    19    1
    16    16    15    1
    17    19    20    1
    18    88    89    1
    19    29    31   ar
    20    80    81    1
    21    89    92    1
    22    82    81   ar
    23    82    84   ar
    24    32    34   ar
    25    21    20    1
    26    21    22    1
    27    22    23    1
    28    81    83   ar
    29    51    52   ar
    30    51    49   ar
    31    26    27    2
    32    84    86   ar
    33    52    50   ar
    34    94    95    1
    35    98    95    1
    36    98    99    1
    37    31    33   ar
    38    95    96    1
    39    49    48   ar
    40    34    33   ar
    41    34    35    1
    42    92    93    1
    43    50    48   ar
    44   100    99   ar
    45   100   102   ar
    46    83    85   ar
    47    48    47    1
    48    86    85   ar
    49    86    87    1
    50    99   101   ar
    51    96    97    2
    52    96   104   am
    53    12    11    2
    54    47    44    1
    55   102   103   ar
    56   101   103   ar
    57    44    43    1
    58    44    45    1
    59   104   105    1
    60    11    10    1
    61    14    13    1
    62    46    45    2
    63    36    37    1
    64    13    10    1
    65    45    53   am
    66    10     9    1
    67    57    58    1
    68    58    61    1
    69    58    59    1
    70   105   106    1
    71    37    40    1
    72    37    38    1
    73     4     3    2
    74    53    54    1
    75    40    42    1
    76    40    41    1
    77   106   107    2
    78    38    39    2
    79     9     3   am
    80    59    60    2
    81     3     2    1
    82    54    55    1
    83    55    56    2
    84    70    68   ar
    85    70    71   ar
    86     2     1    1
    87     2     5    1
    88    73    71   ar
    89    73    75   ar
    90    68    67   ar
    91    71    69   ar
    92     5     6    1
    93    75    74   ar
    94   108   109    1
    95   114   112    1
    96    67    69   ar
    97    67    66    1
    98    69    72   ar
    99    62    63    1
   100    74    72   ar
   101    66    63    1
   102     7     6    1
   103     7     8    1
   104   113   112    1
   105   113   115    1
   106   109   112    1
   107   109   110    1
   108    63    64    1
   109    64    65    2
   110   110   111    2
