@<TRIPOS>MOLECULE
tmp/2zm3A00.pdb
 159 150 0 0 0
SMALL
GASTEIGER

@<TRIPOS>ATOM
      1  N         46.3670   85.2300   56.0470 N.3    24  ARG24      -0.1245
      2  CA        45.7410   85.7100   57.2750 C.3    24  ARG24       0.1563
      3  C         45.2040   84.5550   58.1030 C.2    24  ARG24       0.2260
      4  O         45.0190   83.4480   57.5980 O.2    24  ARG24      -0.2867
      5  CB        44.5860   86.6540   56.9560 C.3    24  ARG24       0.0307
      6  CG        43.5140   86.0010   56.1080 C.3    24  ARG24       0.0489
      7  CD        42.1150   86.4400   56.5070 C.3    24  ARG24       0.2205
      8  NE        41.1060   85.8290   55.6450 N.pl3  24  ARG24      -0.0865
      9  CZ        39.8020   86.0780   55.7190 C.cat  24  ARG24       0.5346
     10  NH1       39.3390   86.9300   56.6240 N.pl3  24  ARG24       0.1354
     11  NH2       38.9610   85.4750   54.8880 N.pl3  24  ARG24       0.1354
     12  N         42.5410   82.2760   60.0160 N.3    26  LEU26      -0.1231
     13  CA        41.1480   81.8820   59.8410 C.3    26  LEU26       0.1693
     14  C         40.5480   81.4380   61.1700 C.2    26  LEU26       0.2593
     15  O         39.3580   81.6150   61.4150 O.2    26  LEU26      -0.2718
     16  CB        41.0220   80.7560   58.8120 C.3    26  LEU26       0.0284
     17  CG        41.1470   81.1300   57.3340 C.3    26  LEU26       0.0019
     18  CD1       40.9200   79.9100   56.4570 C.3    26  LEU26       0.0001
     19  CD2       40.1610   82.2270   56.9790 C.3    26  LEU26       0.0001
     20  N         41.3810   80.8600   62.0250 N.am   27  GLY27      -0.1942
     21  CA        40.9250   80.3910   63.3200 C.3    27  GLY27       0.2014
     22  C         41.8300   79.3290   63.9090 C.2    27  GLY27       0.2639
     23  O         42.6870   78.7770   63.2210 O.2    27  GLY27      -0.2714
     24  N         41.6390   79.0440   65.1930 N.am   28  GLN28      -0.1963
     25  CA        42.4220   78.0220   65.8730 C.3    28  GLN28       0.1733
     26  C         41.9060   76.6270   65.5410 C.2    28  GLN28       0.2616
     27  O         40.7230   76.3340   65.7130 O.2    28  GLN28      -0.2715
     28  CB        42.3860   78.2360   67.3860 C.3    28  GLN28       0.0408
     29  CG        43.1090   77.1560   68.1770 C.3    28  GLN28       0.0908
     30  CD        44.6200   77.2780   68.0810 C.2    28  GLN28       0.2608
     31  OE1       45.1610   78.3840   68.0080 O.2    28  GLN28      -0.2717
     32  NE2       45.3110   76.1400   68.0850 N.am   28  GLN28      -0.0878
     33  N         42.8020   75.7760   65.0530 N.am   29  GLY29      -0.1955
     34  CA        42.4850   74.3820   64.8160 C.3    29  GLY29       0.1869
     35  C         42.8920   73.5730   66.0300 C.2    29  GLY29       0.2309
     36  O         43.3450   74.1380   67.0250 O.2    29  GLY29      -0.2863
     37  N         44.9670   78.0460   61.9600 N.3    34  VAL34      -0.1245
     38  CA        44.6260   77.7940   60.5690 C.3    34  VAL34       0.1561
     39  C         44.6790   79.1100   59.8050 C.2    34  VAL34       0.2260
     40  O         44.2750   80.1520   60.3190 O.2    34  VAL34      -0.2867
     41  CB        43.2310   77.1660   60.4240 C.3    34  VAL34       0.0252
     42  CG1       42.9900   76.7480   58.9800 C.3    34  VAL34       0.0019
     43  CG2       43.0900   75.9760   61.3590 C.3    34  VAL34       0.0019
     44  N         42.8200   76.5500   52.6670 N.3    52  ALA52      -0.1245
     45  CA        42.9920   76.6970   54.1030 C.3    52  ALA52       0.1562
     46  C         44.2540   75.9420   54.5060 C.2    52  ALA52       0.2260
     47  O         44.4830   74.8190   54.0650 O.2    52  ALA52      -0.2867
     48  CB        41.7820   76.1610   54.8450 C.3    52  ALA52       0.0290
     49  N         46.5600   74.3930   57.5150 N.3    54  LYS54      -0.1245
     50  CA        46.7190   74.0040   58.9090 C.3    54  LYS54       0.1561
     51  C         48.1960   73.8250   59.2230 C.2    54  LYS54       0.2260
     52  O         48.9420   73.2680   58.4230 O.2    54  LYS54      -0.2867
     53  CB        45.9270   72.7360   59.2130 C.3    54  LYS54       0.0271
     54  CG        44.4610   72.8680   58.8450 C.3    54  LYS54       0.0035
     55  CD        43.6000   71.8150   59.5090 C.3    54  LYS54       0.0206
     56  CE        43.7130   70.4800   58.8060 C.3    54  LYS54       0.1093
     57  NZ        42.5480   69.6160   59.1430 N.3    54  LYS54      -0.1314
     58  N         34.8740   68.2360   53.0070 N.3    84  VAL84      -0.1245
     59  CA        35.9730   69.1610   52.7470 C.3    84  VAL84       0.1561
     60  C         37.2280   68.3930   52.3470 C.2    84  VAL84       0.2260
     61  O         37.6910   67.5230   53.0840 O.2    84  VAL84      -0.2867
     62  CB        36.2760   70.0510   53.9600 C.3    84  VAL84       0.0252
     63  CG1       37.3820   71.0340   53.6230 C.3    84  VAL84       0.0019
     64  CG2       35.0230   70.7880   54.4040 C.3    84  VAL84       0.0019
     65  N         44.0860   72.3540   52.9590 N.3   100  MET100     -0.1230
     66  CA        42.6780   71.9860   52.8470 C.3   100  MET100      0.1702
     67  C         41.9280   72.8390   51.8300 C.2   100  MET100      0.2592
     68  O         42.4100   73.8800   51.3920 O.2   100  MET100     -0.2718
     69  CB        41.9810   72.1220   54.2040 C.3   100  MET100      0.0401
     70  CG        42.6160   71.3280   55.3330 C.3   100  MET100      0.0596
     71  SD        42.5890   69.5520   55.0470 S.3   100  MET100     -0.1393
     72  CE        40.8650   69.3040   54.6260 C.3   100  MET100      0.0692
     73  N         40.7370   72.3790   51.4660 N.am  101  GLU101     -0.1966
     74  CA        39.8110   73.1540   50.6560 C.3   101  GLU101      0.1733
     75  C         39.3720   74.3700   51.4580 C.2   101  GLU101      0.2616
     76  O         39.1050   74.2690   52.6560 O.2   101  GLU101     -0.2715
     77  CB        38.6020   72.2860   50.3080 C.3   101  GLU101      0.0429
     78  CG        37.4240   73.0130   49.6860 C.3   101  GLU101      0.1163
     79  CD        36.3300   72.0470   49.2470 C.2   101  GLU101      0.3649
     80  OE1       36.4890   70.8300   49.4770 O.co2 101  GLU101     -0.2457
     81  OE2       35.3170   72.4970   48.6720 O.co2 101  GLU101     -0.2457
     82  N         39.3100   75.5250   50.8080 N.am  102  LEU102     -0.1963
     83  CA        38.8700   76.7340   51.4930 C.3   102  LEU102      0.1728
     84  C         37.3510   76.8410   51.4860 C.2   102  LEU102      0.2616
     85  O         36.7100   76.7340   50.4370 O.2   102  LEU102     -0.2715
     86  CB        39.4970   77.9820   50.8650 C.3   102  LEU102      0.0311
     87  CG        39.1010   79.3280   51.4780 C.3   102  LEU102      0.0022
     88  CD1       39.4240   79.3730   52.9660 C.3   102  LEU102      0.0001
     89  CD2       39.7850   80.4690   50.7390 C.3   102  LEU102      0.0001
     90  N         36.7820   77.0330   52.6700 N.am  103  MET103     -0.1963
     91  CA        35.3520   77.2430   52.8220 C.3   103  MET103      0.1736
     92  C         35.1400   78.6630   53.3310 C.2   103  MET103      0.2617
     93  O         35.1750   78.9080   54.5370 O.2   103  MET103     -0.2715
     94  CB        34.7670   76.2260   53.8030 C.3   103  MET103      0.0427
     95  CG        35.0490   74.7790   53.4330 C.3   103  MET103      0.0599
     96  SD        34.2420   74.2800   51.9000 S.3   103  MET103     -0.1393
     97  CE        32.5490   74.0780   52.4500 C.3   103  MET103      0.0692
     98  N         34.9210   79.5930   52.4060 N.am  104  THR104     -0.1937
     99  CA        34.9850   81.0220   52.7160 C.3   104  THR104      0.2028
    100  C         34.0090   81.5160   53.7780 C.2   104  THR104      0.2642
    101  O         34.2470   82.5500   54.3960 O.2   104  THR104     -0.2714
    102  CB        34.7970   81.8870   51.4580 C.3   104  THR104      0.1808
    103  OG1       33.4530   81.7500   50.9790 O.3   104  THR104     -0.2208
    104  CG2       35.7720   81.4700   50.3740 C.3   104  THR104      0.0379
    105  N         32.9140   80.7990   53.9950 N.am  105  ARG105     -0.1963
    106  CA        31.9250   81.2650   54.9640 C.3   105  ARG105      0.1729
    107  C         32.0350   80.5900   56.3310 C.2   105  ARG105      0.2617
    108  O         31.1730   80.7680   57.1900 O.2   105  ARG105     -0.2715
    109  CB        30.5060   81.1660   54.3950 C.3   105  ARG105      0.0348
    110  CG        30.2740   82.1240   53.2340 C.3   105  ARG105      0.0492
    111  CD        28.8850   81.9970   52.6340 C.3   105  ARG105      0.2205
    112  NE        28.8320   82.6270   51.3200 N.pl3 105  ARG105     -0.0865
    113  CZ        28.8080   83.9410   51.1220 C.cat 105  ARG105      0.5346
    114  NH1       28.8220   84.7700   52.1570 N.pl3 105  ARG105      0.1354
    115  NH2       28.7690   84.4280   49.8890 N.pl3 105  ARG105      0.1354
    116  N         33.1050   79.8260   56.5270 N.am  106  GLY106     -0.1940
    117  CA        33.4220   79.2760   57.8330 C.3   106  GLY106      0.2014
    118  C         32.5590   78.1100   58.2780 C.2   106  GLY106      0.2638
    119  O         31.9020   77.4600   57.4620 O.2   106  GLY106     -0.2714
    120  N         32.5590   77.8450   59.5820 N.am  107  ASP107     -0.1971
    121  CA        31.8000   76.7270   60.1360 C.3   107  ASP107      0.1709
    122  C         30.3040   77.0320   60.2010 C.2   107  ASP107      0.2293
    123  O         29.9010   78.1480   60.5240 O.2   107  ASP107     -0.2864
    124  CB        32.3240   76.3490   61.5230 C.3   107  ASP107      0.1436
    125  CG        31.9560   77.3660   62.5800 C.2   107  ASP107      0.3671
    126  OD1       32.5490   78.4630   62.5840 O.co2 107  ASP107     -0.2456
    127  OD2       31.0790   77.0660   63.4150 O.co2 107  ASP107     -0.2456
    128  N         27.9270   80.5120   61.2000 N.3   111  TYR111     -0.1241
    129  CA        27.2930   81.0520   60.0020 C.3   111  TYR111      0.1605
    130  C         25.7890   81.2040   60.2070 C.2   111  TYR111      0.2264
    131  O         25.1950   82.2000   59.7950 O.2   111  TYR111     -0.2867
    132  CB        27.5530   80.1730   58.7810 C.3   111  TYR111      0.0534
    133  CG        26.6540   80.5270   57.6190 C.ar  111  TYR111     -0.0201
    134  CD1       26.9420   81.6070   56.7990 C.ar  111  TYR111     -0.0009
    135  CD2       25.5040   79.7930   57.3560 C.ar  111  TYR111     -0.0009
    136  CE1       26.1180   81.9430   55.7410 C.ar  111  TYR111      0.0417
    137  CE2       24.6720   80.1200   56.3010 C.ar  111  TYR111      0.0417
    138  CZ        24.9840   81.1970   55.4980 C.ar  111  TYR111      0.1957
    139  OH        24.1630   81.5300   54.4460 O.3   111  TYR111     -0.2866
    140  N         31.0860   73.0250   57.3730 N.3   160  MET160     -0.1245
    141  CA        31.5980   74.3010   56.8820 C.3   160  MET160      0.1570
    142  C         30.7680   74.7770   55.6970 C.2   160  MET160      0.2261
    143  O         30.1860   73.9710   54.9760 O.2   160  MET160     -0.2867
    144  CB        33.0620   74.1680   56.4530 C.3   160  MET160      0.0387
    145  CG        34.0000   73.5760   57.5000 C.3   160  MET160      0.0595
    146  SD        34.7680   74.8140   58.5610 S.3   160  MET160     -0.1393
    147  CE        35.1280   76.0980   57.3680 C.3   160  MET160      0.0692
    148  N         33.1760   68.8410   57.6820 N.3   170  GLY170     -0.1210
    149  CA        34.4840   69.4770   57.6870 C.3   170  GLY170      0.1956
    150  C         35.4750   69.1430   58.7910 C.2   170  GLY170      0.2611
    151  O         36.5630   69.7170   58.8310 O.2   170  GLY170     -0.2717
    152  N         35.1240   68.2250   59.6860 N.am  171  ASP171     -0.1973
    153  CA        36.0390   67.8430   60.7570 C.3   171  ASP171      0.1709
    154  C         35.9210   66.3560   61.0590 C.2   171  ASP171      0.2293
    155  O         34.8210   65.8490   61.2520 O.2   171  ASP171     -0.2864
    156  CB        35.7780   68.6760   62.0130 C.3   171  ASP171      0.1436
    157  CG        36.8350   68.4650   63.0830 C.2   171  ASP171      0.3671
    158  OD1       37.7620   69.2980   63.1750 O.co2 171  ASP171     -0.2456
    159  OD2       36.7450   67.4650   63.8260 O.co2 171  ASP171     -0.2456
@<TRIPOS>BOND
     1    81    79   ar
     2    79    80   ar
     3    79    78    1
     4    78    77    1
     5   115   113    1
     6    77    74    1
     7   104   102    1
     8    85    84    2
     9    74    75    1
    10    74    73    1
    11    89    87    1
    12    82    75   am
    13    82    83    1
    14    86    87    1
    15    86    83    1
    16   103   102    1
    17   113   112    2
    18   113   114    1
    19   112   111    1
    20    68    67    2
    21    75    76    2
    22   102    99    1
    23    73    67   am
    24    87    88    1
    25    84    83    1
    26    84    90   am
    27    67    66    1
    28    96    97    1
    29    96    95    1
    30    60    59    1
    31    60    61    2
    32    98    99    1
    33    98    92   am
    34   111   110    1
    35    44    45    1
    36    90    91    1
    37    99   100    1
    38    59    58    1
    39    59    62    1
    40    91    92    1
    41    91    94    1
    42    66    65    1
    43    66    69    1
    44   110   109    1
    45    92    93    2
    46    95    94    1
    47    63    62    1
    48   100   105   am
    49   100   101    2
    50    62    64    1
    51   105   106    1
    52    47    46    2
    53    45    46    1
    54    45    48    1
    55    69    70    1
    56   109   106    1
    57   139   138    1
    58    72    71    1
    59    11     9    1
    60   106   107    1
    61   143   142    2
    62    71    70    1
    63   138   136   ar
    64   138   137   ar
    65     8     9    2
    66     8     7    1
    67   142   141    1
    68     9    10    1
    69   136   134   ar
    70     1     2    1
    71     6     7    1
    72     6     5    1
    73   137   135   ar
    74   107   116   am
    75   107   108    2
    76   144   141    1
    77   144   145    1
    78    18    17    1
    79   116   117    1
    80   134   133   ar
    81   141   140    1
    82     5     2    1
    83    19    17    1
    84     2     3    1
    85    17    16    1
    86   135   133   ar
    87   147   146    1
    88   119   118    2
    89   145   146    1
    90    49    50    1
    91     4     3    2
    92   133   132    1
    93   148   149    1
    94   149   150    1
    95   117   118    1
    96   118   120   am
    97    52    51    2
    98   132   129    1
    99   150   151    2
   100   150   152   am
   101    56    57    1
   102    56    55    1
   103    16    13    1
   104    54    53    1
   105    54    55    1
   106    50    53    1
   107    50    51    1
   108    42    41    1
   109   120   121    1
   110   152   153    1
   111   131   130    2
   112    39    40    2
   113    39    38    1
   114    13    12    1
   115    13    14    1
   116   129   130    1
   117   129   128    1
   118   121   122    1
   119   121   124    1
   120   122   123    2
   121    41    38    1
   122    41    43    1
   123    38    37    1
   124   153   154    1
   125   153   156    1
   126   154   155    2
   127    14    15    2
   128    14    20   am
   129   124   125    1
   130   156   157    1
   131    20    21    1
   132   125   126   ar
   133   125   127   ar
   134   157   158   ar
   135   157   159   ar
   136    23    22    2
   137    21    22    1
   138    22    24   am
   139    34    33    1
   140    34    35    1
   141    33    26   am
   142    24    25    1
   143    26    27    2
   144    26    25    1
   145    25    28    1
   146    35    36    2
   147    28    29    1
   148    31    30    2
   149    30    32   am
   150    30    29    1
