@<TRIPOS>MOLECULE
tmp/2zm4A00.pdb
 158 148 0 0 0
SMALL
GASTEIGER

@<TRIPOS>ATOM
      1  N         30.9150   38.3080    2.4760 N.3    21  LEU21      -0.1231
      2  CA        31.1100   37.2230    3.4630 C.3    21  LEU21       0.1693
      3  C         30.9860   35.8230    2.8840 C.2    21  LEU21       0.2592
      4  O         31.6330   34.9010    3.3930 O.2    21  LEU21      -0.2718
      5  CB        30.1520   37.3370    4.6390 C.3    21  LEU21       0.0284
      6  CG        30.2290   38.5770    5.5470 C.3    21  LEU21       0.0019
      7  CD1       29.5960   38.1880    6.8870 C.3    21  LEU21       0.0001
      8  CD2       31.6060   39.1970    5.7270 C.3    21  LEU21       0.0001
      9  N         30.1590   35.6790    1.8290 N.am   22  GLY22      -0.1957
     10  CA        29.7630   34.4010    1.1890 C.3    22  GLY22       0.1869
     11  C         29.2110   34.5390   -0.2210 C.2    22  GLY22       0.2309
     12  O         28.6280   35.5760   -0.5430 O.2    22  GLY22      -0.2863
     13  N         26.3930   37.0750    0.1670 N.3    29  VAL29      -0.1245
     14  CA        26.0840   37.7100    1.4730 C.3    29  VAL29       0.1561
     15  C         27.1970   38.6710    1.8830 C.2    29  VAL29       0.2260
     16  O         28.3340   38.2530    2.1450 O.2    29  VAL29      -0.2867
     17  CB        25.8450   36.7360    2.6490 C.3    29  VAL29       0.0252
     18  CG1       25.6570   37.4940    3.9840 C.3    29  VAL29       0.0019
     19  CG2       24.6500   35.8530    2.3580 C.3    29  VAL29       0.0019
     20  N         23.6560   43.3420    7.3340 N.3    41  ALA41      -0.1231
     21  CA        24.1260   42.2940    6.4460 C.3    41  ALA41       0.1694
     22  C         23.1920   42.2730    5.2450 C.2    41  ALA41       0.2592
     23  O         21.9640   42.4160    5.3910 O.2    41  ALA41      -0.2718
     24  CB        24.1410   40.9740    7.1360 C.3    41  ALA41       0.0304
     25  N         23.7780   42.1330    4.0580 N.am   42  VAL42      -0.1966
     26  CA        22.9880   42.2240    2.8450 C.3    42  VAL42       0.1727
     27  C         23.0830   40.9500    2.0910 C.2    42  VAL42       0.2616
     28  O         24.2170   40.5550    1.7560 O.2    42  VAL42      -0.2715
     29  CB        23.5020   43.2760    1.9080 C.3    42  VAL42       0.0290
     30  CG1       22.8330   43.0930    0.5770 C.3    42  VAL42       0.0023
     31  CG2       23.1780   44.6320    2.4680 C.3    42  VAL42       0.0023
     32  N         21.9130   40.3250    1.8220 N.am   43  LYS43      -0.1977
     33  CA        21.7620   39.1220    0.9300 C.3    43  LYS43       0.1596
     34  C         21.2170   39.5570   -0.4060 C.2    43  LYS43       0.2287
     35  O         20.1180   40.1480   -0.4610 O.2    43  LYS43      -0.2864
     36  CB        20.7930   38.0880    1.5310 C.3    43  LYS43       0.0298
     37  CG        21.0060   36.6790    1.0460 C.3    43  LYS43       0.0038
     38  CD        20.2170   35.6340    1.8770 C.3    43  LYS43       0.0206
     39  CE        18.9260   35.1490    1.1930 C.3    43  LYS43       0.1093
     40  NZ        18.0680   34.3070    2.1070 N.3    43  LYS43      -0.1314
     41  N         10.8990   34.6090    2.1950 N.3    58  GLU58      -0.1245
     42  CA        11.7040   34.5720    3.4400 C.3    58  GLU58       0.1567
     43  C         11.5380   35.8740    4.2800 C.2    58  GLU58       0.2260
     44  O         11.3830   35.8320    5.5130 O.2    58  GLU58      -0.2867
     45  CB        13.1930   34.2980    3.1350 C.3    58  GLU58       0.0388
     46  CG        13.9490   33.8740    4.3730 C.3    58  GLU58       0.1160
     47  CD        15.4590   33.8480    4.1670 C.2    58  GLU58       0.3649
     48  OE1       15.9250   34.0680    3.0190 O.co2  58  GLU58      -0.2457
     49  OE2       16.1900   33.5990    5.1480 O.co2  58  GLU58      -0.2457
     50  N          9.8990   36.6820    8.1250 N.3    62  MET62      -0.1245
     51  CA        10.5290   37.5800    9.0810 C.3    62  MET62       0.1570
     52  C          9.7240   38.8850    9.3430 C.2    62  MET62       0.2261
     53  O          9.9160   39.4640   10.3820 O.2    62  MET62      -0.2867
     54  CB        11.9680   37.9190    8.6660 C.3    62  MET62       0.0387
     55  CG        12.8380   36.7330    8.2960 C.3    62  MET62       0.0595
     56  SD        14.4650   37.3560    7.8180 S.3    62  MET62      -0.1393
     57  CE        15.2550   37.6360    9.4000 C.3    62  MET62       0.0692
     58  N         17.0900   36.8640   14.5680 N.3    71  VAL71      -0.1245
     59  CA        17.7190   37.7850   13.6140 C.3    71  VAL71       0.1561
     60  C         16.6130   38.6070   12.9470 C.2    71  VAL71       0.2260
     61  O         15.6210   38.0350   12.4490 O.2    71  VAL71      -0.2867
     62  CB        18.6310   37.0140   12.5770 C.3    71  VAL71       0.0252
     63  CG1       19.2270   37.8990   11.5500 C.3    71  VAL71       0.0019
     64  CG2       19.7550   36.3980   13.2550 C.3    71  VAL71       0.0019
     65  N         17.8020   41.3870    0.6220 N.3    84  ILE84      -0.1245
     66  CA        17.2650   41.2270    2.0000 C.3    84  ILE84       0.1561
     67  C         18.2900   41.7580    2.9940 C.2    84  ILE84       0.2260
     68  O         19.4190   41.2990    3.0630 O.2    84  ILE84      -0.2867
     69  CB        16.8310   39.7980    2.3590 C.3    84  ILE84       0.0252
     70  CG1       15.6900   39.3830    1.4060 C.3    84  ILE84       0.0019
     71  CG2       16.4340   39.7620    3.8640 C.3    84  ILE84       0.0019
     72  CD1       15.2890   37.8930    1.3520 C.3    84  ILE84       0.0001
     73  N         19.2880   42.4840    6.7350 N.3    86  THR86      -0.1203
     74  CA        19.0030   42.1820    8.1180 C.3    86  THR86       0.1994
     75  C         20.0430   42.6980    9.0850 C.2    86  THR86       0.2618
     76  O         21.0900   43.2050    8.6800 O.2    86  THR86      -0.2717
     77  CB        18.7860   40.6790    8.3110 C.3    86  THR86       0.1784
     78  OG1       19.9760   39.9780    7.9010 O.3    86  THR86      -0.2211
     79  CG2       17.5090   40.1840    7.4920 C.3    86  THR86       0.0376
     80  N         19.6830   42.6310   10.3670 N.am   87  GLU87      -0.1965
     81  CA        20.5750   42.8630   11.5150 C.3    87  GLU87       0.1733
     82  C         21.8750   42.0410   11.4380 C.2    87  GLU87       0.2616
     83  O         21.8620   40.8540   11.1100 O.2    87  GLU87      -0.2715
     84  CB        19.8040   42.6300   12.8400 C.3    87  GLU87       0.0429
     85  CG        20.5340   41.9590   13.9900 C.3    87  GLU87       0.1163
     86  CD        19.6310   41.6940   15.2070 C.2    87  GLU87       0.3649
     87  OE1       18.5580   41.0670   15.0770 O.co2  87  GLU87      -0.2457
     88  OE2       19.9590   42.0990   16.3130 O.co2  87  GLU87      -0.2457
     89  N         22.9760   42.7140   11.7850 N.am   88  TYR88      -0.1960
     90  CA        24.3400   42.2220   11.6250 C.3    88  TYR88       0.1771
     91  C         24.8820   41.5420   12.8650 C.2    88  TYR88       0.2619
     92  O         24.9050   42.1190   13.9310 O.2    88  TYR88      -0.2715
     93  CB        25.2510   43.3860   11.3200 C.3    88  TYR88       0.0574
     94  CG        26.6350   42.9490   11.0460 C.ar   88  TYR88      -0.0198
     95  CD1       26.9470   42.3930    9.8180 C.ar   88  TYR88      -0.0009
     96  CD2       27.6330   43.1100   11.9750 C.ar   88  TYR88      -0.0009
     97  CE1       28.1990   41.9870    9.5160 C.ar   88  TYR88       0.0417
     98  CE2       28.9050   42.6890   11.6940 C.ar   88  TYR88       0.0417
     99  CZ        29.1790   42.1240   10.4530 C.ar   88  TYR88       0.1957
    100  OH        30.4580   41.6910   10.0910 O.3    88  TYR88      -0.2866
    101  N         25.3470   40.3130   12.6720 N.am   89  MET89      -0.1977
    102  CA        25.9180   39.5220   13.7140 C.3    89  MET89       0.1605
    103  C         27.4390   39.4370   13.5640 C.2    89  MET89       0.2287
    104  O         27.9780   38.9620   12.5860 O.2    89  MET89      -0.2864
    105  CB        25.2520   38.1690   13.7740 C.3    89  MET89       0.0413
    106  CG        23.7280   38.2530   13.9030 C.3    89  MET89       0.0598
    107  SD        23.0130   39.0430   15.3500 S.3    89  MET89      -0.1393
    108  CE        23.5750   38.0480   16.7270 C.3    89  MET89       0.0692
    109  N         29.5240   36.0960   13.7460 N.3    92  GLY92      -0.1210
    110  CA        29.2300   35.2160   12.6420 C.3    92  GLY92       0.1956
    111  C         28.5150   33.9370   13.0310 C.2    92  GLY92       0.2612
    112  O         27.7730   33.8820   13.9690 O.2    92  GLY92      -0.2717
    113  N         28.7380   32.8890   12.3020 N.am   93  SER93      -0.1952
    114  CA        27.9870   31.7030   12.5280 C.3    93  SER93       0.1924
    115  C         28.5410   30.8790   13.7160 C.2    93  SER93       0.2314
    116  O         29.7880   30.7980   13.8980 O.2    93  SER93      -0.2863
    117  CB        27.9930   30.8940   11.2670 C.3    93  SER93       0.2116
    118  OG        27.7240   29.6190   11.6700 O.3    93  SER93      -0.2180
    119  N         31.1380   28.2630   13.1050 N.3    96  ASP96      -0.1239
    120  CA        32.4780   28.9240   12.9580 C.3    96  ASP96       0.1674
    121  C         33.0720   29.5880   14.2040 C.2    96  ASP96       0.2266
    122  O         34.2870   29.4510   14.4740 O.2    96  ASP96      -0.2867
    123  CB        32.5390   29.9130   11.8270 C.3    96  ASP96       0.1410
    124  CG        32.2650   29.2960   10.5290 C.2    96  ASP96       0.3668
    125  OD1       32.5070   28.0900   10.3870 O.co2  96  ASP96      -0.2456
    126  OD2       31.7770   30.0240    9.6530 O.co2  96  ASP96      -0.2456
    127  N         23.4280   32.6380   14.7280 N.3   141  LEU141     -0.1245
    128  CA        24.5340   33.6160   14.5520 C.3   141  LEU141      0.1561
    129  C         24.9410   34.1730   15.8990 C.2   141  LEU141      0.2260
    130  O         24.2020   34.0180   16.8930 O.2   141  LEU141     -0.2867
    131  CB        24.2140   34.6980   13.5240 C.3   141  LEU141      0.0270
    132  CG        23.8430   34.2290   12.1120 C.3   141  LEU141      0.0019
    133  CD1       23.4620   35.3470   11.2700 C.3   141  LEU141      0.0001
    134  CD2       24.9510   33.4930   11.4380 C.3   141  LEU141      0.0001
    135  N         18.7120   32.1760   13.0800 N.3   151  ALA151     -0.1231
    136  CA        18.8050   32.8190   11.7820 C.3   151  ALA151      0.1694
    137  C         18.2470   31.8940   10.7020 C.2   151  ALA151      0.2592
    138  O         17.8880   30.7510   10.9560 O.2   151  ALA151     -0.2718
    139  CB        20.2350   33.1750   11.4870 C.3   151  ALA151      0.0304
    140  N         18.1950   32.4010    9.4790 N.am  152  ASP152     -0.1960
    141  CA        17.7950   31.6430    8.2890 C.3   152  ASP152      0.1840
    142  C         16.3930   31.0760    8.3560 C.2   152  ASP152      0.2622
    143  O         16.1500   30.0410    8.9400 O.2   152  ASP152     -0.2715
    144  CB        18.7950   30.5570    7.8880 C.3   152  ASP152      0.1450
    145  CG        18.6060   30.1480    6.4170 C.2   152  ASP152      0.3671
    146  OD1       17.5240   30.4150    5.8440 O.co2 152  ASP152     -0.2456
    147  OD2       19.5630   29.6330    5.8050 O.co2 152  ASP152     -0.2456
    148  N         15.4830   31.7430    7.7010 N.am  153  PHE153     -0.1974
    149  CA        14.1490   31.3060    7.7640 C.3   153  PHE153      0.1639
    150  C         13.6180   30.8460    6.3620 C.2   153  PHE153      0.2290
    151  O         12.3960   30.9380    6.0460 O.2   153  PHE153     -0.2864
    152  CB        13.3040   32.4040    8.4110 C.3   153  PHE153      0.0560
    153  CG        13.6700   32.7030    9.8420 C.ar  153  PHE153     -0.0200
    154  CD1       12.9730   32.1160   10.8780 C.ar  153  PHE153     -0.0042
    155  CD2       14.6970   33.6270   10.1460 C.ar  153  PHE153     -0.0042
    156  CE1       13.3010   32.4130   12.1760 C.ar  153  PHE153     -0.0003
    157  CE2       15.0280   33.9480   11.4770 C.ar  153  PHE153     -0.0003
    158  CZ        14.3330   33.3310   12.4750 C.ar  153  PHE153     -0.0000
@<TRIPOS>BOND
     1    12    11    2
     2    35    34    2
     3    34    33    1
     4    11    10    1
     5    13    14    1
     6    30    29    1
     7    65    66    1
     8    33    36    1
     9    33    32    1
    10    37    36    1
    11    37    38    1
    12    10     9    1
    13    39    38    1
    14    39    40    1
    15    72    70    1
    16    70    69    1
    17    14    15    1
    18    14    17    1
    19    28    27    2
    20    32    27   am
    21     9     3   am
    22    15    16    2
    23    29    31    1
    24    29    26    1
    25    66    69    1
    26    66    67    1
    27    27    26    1
    28    41    42    1
    29    19    17    1
    30    69    71    1
    31     1     2    1
    32    17    18    1
    33    26    25    1
    34     3     4    2
    35     3     2    1
    36    67    68    2
    37    48    47   ar
    38    45    42    1
    39    45    46    1
    40    42    43    1
    41     2     5    1
    42    25    22   am
    43    47    46    1
    44    47    49   ar
    45    43    44    2
    46     5     6    1
    47    22    23    2
    48    22    21    1
    49     6     8    1
    50     6     7    1
    51   147   145   ar
    52   146   145   ar
    53   151   150    2
    54   150   149    1
    55   145   144    1
    56    21    24    1
    57    21    20    1
    58    73    74    1
    59    79    77    1
    60   148   149    1
    61   148   142   am
    62   149   152    1
    63    56    55    1
    64    56    57    1
    65   144   141    1
    66    78    77    1
    67    74    77    1
    68    74    75    1
    69    50    51    1
    70   141   142    1
    71   141   140    1
    72    55    54    1
    73   142   143    2
    74   152   153    1
    75    54    51    1
    76    76    75    2
    77    51    52    1
    78    75    80   am
    79    52    53    2
    80   140   137   am
    81    97    95   ar
    82    97    99   ar
    83   126   124   ar
    84    95    94   ar
    85   153   155   ar
    86   153   154   ar
    87   100    99    1
    88   155   157   ar
    89    80    81    1
    90   125   124   ar
    91    99    98   ar
    92   124   123    1
    93   137   138    2
    94   137   136    1
    95   154   156   ar
    96    94    93    1
    97    94    96   ar
    98    83    82    2
    99   117   118    1
   100   117   114    1
   101   133   132    1
   102    93    90    1
   103   134   132    1
   104    82    81    1
   105    82    89   am
   106   157   158   ar
   107   139   136    1
   108    81    84    1
   109    63    62    1
   110    90    89    1
   111    90    91    1
   112    98    96   ar
   113   136   135    1
   114   123   120    1
   115   132   131    1
   116   156   158   ar
   117   113   114    1
   118   113   111   am
   119    61    60    2
   120   114   115    1
   121    62    64    1
   122    62    59    1
   123   104   103    2
   124   110   111    1
   125   110   109    1
   126   101    91   am
   127   101   102    1
   128    84    85    1
   129    91    92    2
   130    60    59    1
   131   120   119    1
   132   120   121    1
   133   111   112    2
   134   131   128    1
   135   103   102    1
   136    59    58    1
   137   102   105    1
   138   115   116    2
   139   105   106    1
   140   106   107    1
   141    85    86    1
   142   121   122    2
   143   128   127    1
   144   128   129    1
   145    87    86   ar
   146    86    88   ar
   147   107   108    1
   148   129   130    2
