@<TRIPOS>MOLECULE
tmp/2zm7A00.pdb
 198 192 0 0 0
SMALL
GASTEIGER

@<TRIPOS>ATOM
      1  N         53.7800   15.2750   14.7020 N.3   103  MET103     -0.1230
      2  CA        52.5840   15.8860   14.1340 C.3   103  MET103      0.1702
      3  C         52.8730   16.2540   12.6740 C.2   103  MET103      0.2592
      4  O         53.4800   15.4640   11.9610 O.2   103  MET103     -0.2718
      5  CB        52.1730   17.1130   14.9620 C.3   103  MET103      0.0401
      6  CG        51.5640   16.7530   16.3280 C.3   103  MET103      0.0596
      7  SD        50.0480   15.7780   16.1660 S.3   103  MET103     -0.1393
      8  CE        49.4200   15.7820   17.8660 C.3   103  MET103      0.0692
      9  N         52.4620   17.4340   12.2170 N.am  104  ALA104     -0.1980
     10  CA        52.5850   17.7430   10.7910 C.3   104  ALA104      0.1597
     11  C         53.9980   18.0010   10.2640 C.2   104  ALA104      0.2287
     12  O         54.1740   18.2380    9.0670 O.2   104  ALA104     -0.2864
     13  CB        51.6790   18.9110   10.4220 C.3   104  ALA104      0.0319
     14  N         36.6160   21.3490    4.6550 N.3   158  TYR158     -0.1241
     15  CA        37.3190   20.5830    5.6740 C.3   158  TYR158      0.1605
     16  C         37.7510   21.5660    6.7480 C.2   158  TYR158      0.2264
     17  O         38.6580   22.3750    6.5360 O.2   158  TYR158     -0.2867
     18  CB        38.5440   19.8970    5.0570 C.3   158  TYR158      0.0534
     19  CG        39.3530   19.0200    5.9980 C.ar  158  TYR158     -0.0201
     20  CD1       39.5000   17.6550    5.7520 C.ar  158  TYR158     -0.0009
     21  CD2       40.0190   19.5640    7.0970 C.ar  158  TYR158     -0.0009
     22  CE1       40.2990   16.8520    6.5740 C.ar  158  TYR158      0.0417
     23  CE2       40.8180   18.7690    7.9260 C.ar  158  TYR158      0.0417
     24  CZ        40.9540   17.4170    7.6540 C.ar  158  TYR158      0.1957
     25  OH        41.7670   16.6400    8.4520 O.3   158  TYR158     -0.2866
     26  N         41.4650   21.8000   15.4810 N.3   162  TYR162     -0.1241
     27  CA        41.9750   20.6480   16.2160 C.3   162  TYR162      0.1605
     28  C         41.2820   20.4020   17.5540 C.2   162  TYR162      0.2264
     29  O         41.5100   19.3750   18.1940 O.2   162  TYR162     -0.2867
     30  CB        43.4820   20.8040   16.4320 C.3   162  TYR162      0.0534
     31  CG        44.2430   21.0000   15.1420 C.ar  162  TYR162     -0.0201
     32  CD1       44.2980   19.9870   14.1860 C.ar  162  TYR162     -0.0009
     33  CD2       44.8920   22.2030   14.8670 C.ar  162  TYR162     -0.0009
     34  CE1       44.9770   20.1660   12.9840 C.ar  162  TYR162      0.0417
     35  CE2       45.5760   22.3950   13.6660 C.ar  162  TYR162      0.0417
     36  CZ        45.6130   21.3700   12.7300 C.ar  162  TYR162      0.1957
     37  OH        46.2840   21.5460   11.5420 O.3   162  TYR162     -0.2866
     38  N         38.6780   17.3360   10.9390 N.3   169  VAL169     -0.1245
     39  CA        39.9220   16.8830   11.5570 C.3   169  VAL169      0.1561
     40  C         39.6620   15.6690   12.4350 C.2   169  VAL169      0.2260
     41  O         40.3980   14.6850   12.3860 O.2   169  VAL169     -0.2867
     42  CB        40.5600   17.9860   12.4390 C.3   169  VAL169      0.0252
     43  CG1       41.7040   17.4100   13.2580 C.3   169  VAL169      0.0019
     44  CG2       41.0690   19.1080   11.5690 C.3   169  VAL169      0.0019
     45  N         38.5890   12.6790   10.4440 N.3   172  HIS172     -0.1226
     46  CA        39.8230   12.1670    9.8580 C.3   172  HIS172      0.1752
     47  C         40.5340   11.2840   10.8930 C.2   172  HIS172      0.2596
     48  O         40.9670   10.1690   10.5820 O.2   172  HIS172     -0.2718
     49  CB        40.7130   13.3570    9.4530 C.3   172  HIS172      0.0759
     50  CG        41.8180   13.0110    8.5040 C.ar  172  HIS172      0.0818
     51  ND1       42.4980   13.9690    7.7810 N.ar  172  HIS172     -0.2268
     52  CD2       42.3700   11.8220    8.1640 C.ar  172  HIS172      0.1154
     53  CE1       43.4200   13.3850    7.0370 C.ar  172  HIS172      0.1986
     54  NE2       43.3630   12.0820    7.2500 N.ar  172  HIS172     -0.2212
     55  N         40.6410   11.7870   12.1200 N.am  173  ASP173     -0.1974
     56  CA        41.2790   11.0470   13.2100 C.3   173  ASP173      0.1709
     57  C         40.5440    9.7350   13.4880 C.2   173  ASP173      0.2293
     58  O         41.1700    8.6900   13.6800 O.2   173  ASP173     -0.2864
     59  CB        41.2990   11.8870   14.4950 C.3   173  ASP173      0.1436
     60  CG        42.3910   12.9450   14.4980 C.2   173  ASP173      0.3671
     61  OD1       43.1680   13.0170   13.5230 O.co2 173  ASP173     -0.2456
     62  OD2       42.4720   13.7040   15.4870 O.co2 173  ASP173     -0.2456
     63  N         43.1480    7.4150   15.3640 N.3   178  TRP178     -0.1241
     64  CA        43.6700    8.3140   16.3870 C.3   178  TRP178      0.1605
     65  C         42.6340    8.6290   17.4580 C.2   178  TRP178      0.2264
     66  O         42.9780    9.0810   18.5470 O.2   178  TRP178     -0.2867
     67  CB        44.1590    9.6230   15.7560 C.3   178  TRP178      0.0550
     68  CG        45.6180    9.6150   15.4240 C.ar  178  TRP178      0.0003
     69  CD1       46.3640    8.5400   15.0230 C.ar  178  TRP178      0.0946
     70  CD2       46.5160   10.7300   15.4760 C.ar  178  TRP178      0.0152
     71  NE1       47.6710    8.9180   14.8250 N.ar  178  TRP178     -0.2442
     72  CE2       47.7930   10.2560   15.0950 C.ar  178  TRP178      0.0810
     73  CE3       46.3680   12.0860   15.8060 C.ar  178  TRP178      0.0012
     74  CZ2       48.9170   11.0890   15.0360 C.ar  178  TRP178      0.0191
     75  CZ3       47.4870   12.9160   15.7470 C.ar  178  TRP178      0.0001
     76  CH2       48.7450   12.4120   15.3640 C.ar  178  TRP178      0.0015
     77  N         45.4120   25.2070    4.2890 N.3   207  TYR207     -0.1241
     78  CA        46.0720   24.0900    4.9460 C.3   207  TYR207      0.1605
     79  C         45.0400   23.0080    5.2230 C.2   207  TYR207      0.2264
     80  O         44.0390   23.2550    5.8970 O.2   207  TYR207     -0.2867
     81  CB        46.7010   24.5450    6.2550 C.3   207  TYR207      0.0534
     82  CG        47.5790   23.4960    6.8900 C.ar  207  TYR207     -0.0201
     83  CD1       48.9350   23.4240    6.5830 C.ar  207  TYR207     -0.0009
     84  CD2       47.0570   22.5800    7.8030 C.ar  207  TYR207     -0.0009
     85  CE1       49.7540   22.4690    7.1680 C.ar  207  TYR207      0.0417
     86  CE2       47.8710   21.6170    8.3970 C.ar  207  TYR207      0.0417
     87  CZ        49.2190   21.5740    8.0750 C.ar  207  TYR207      0.1957
     88  OH        50.0490   20.6640    8.6860 O.3   207  TYR207     -0.2866
     89  N         45.0580   18.7490    6.1610 N.3   209  SER209     -0.1217
     90  CA        45.8130   17.5300    6.4230 C.3   209  SER209      0.1889
     91  C         45.4630   16.3950    5.4660 C.2   209  SER209      0.2288
     92  O         46.2700   15.4970    5.2410 O.2   209  SER209     -0.2866
     93  CB        45.5880   17.0770    7.8670 C.3   209  SER209      0.2089
     94  OG        46.2520   17.9320    8.7830 O.3   209  SER209     -0.2183
     95  N         49.7880    7.1280    8.8260 N.3   256  PHE256     -0.1241
     96  CA        49.1250    8.4120    9.0480 C.3   256  PHE256      0.1605
     97  C         50.0850    9.5030    8.5650 C.2   256  PHE256      0.2264
     98  O         50.7540   10.1600    9.3640 O.2   256  PHE256     -0.2867
     99  CB        48.8490    8.5570   10.5500 C.3   256  PHE256      0.0534
    100  CG        47.7850    9.5610   10.9030 C.ar  256  PHE256     -0.0203
    101  CD1       46.4590    9.3480   10.5500 C.ar  256  PHE256     -0.0042
    102  CD2       48.0980   10.6690   11.6820 C.ar  256  PHE256     -0.0042
    103  CE1       45.4560   10.2230   10.9800 C.ar  256  PHE256     -0.0003
    104  CE2       47.1040   11.5460   12.1150 C.ar  256  PHE256     -0.0003
    105  CZ        45.7850   11.3190   11.7650 C.ar  256  PHE256     -0.0000
    106  N         50.0640   12.4810    7.3480 N.3   258  HIS258     -0.1226
    107  CA        49.9870   13.9070    7.6390 C.3   258  HIS258      0.1756
    108  C         50.3820   14.2900    9.0630 C.2   258  HIS258      0.2635
    109  O         50.5560   15.4730    9.3510 O.2   258  HIS258     -0.2714
    110  CB        48.5840   14.4490    7.3250 C.3   258  HIS258      0.0759
    111  CG        47.5630   14.1670    8.3820 C.ar  258  HIS258      0.0818
    112  ND1       46.6240   13.1670    8.2580 N.ar  258  HIS258     -0.2268
    113  CD2       47.2980   14.7900    9.5550 C.ar  258  HIS258      0.1154
    114  CE1       45.8200   13.1900    9.3070 C.ar  258  HIS258      0.1986
    115  NE2       46.2070   14.1650   10.1090 N.ar  258  HIS258     -0.2212
    116  N         50.5330   13.3150    9.9570 N.am  259  GLY259     -0.1732
    117  CA        50.8610   13.6730   11.3280 C.2   259  GLY259      0.1340
    118  C         51.4140   12.6120   12.2650 C.2   259  GLY259      0.2521
    119  O         51.6920   12.9150   13.4250 O.2   259  GLY259     -0.2816
    120  N         46.7750   33.2570    4.7260 N.3   306  ASP306     -0.1239
    121  CA        46.6160   32.9370    6.1410 C.3   306  ASP306      0.1674
    122  C         47.1630   34.0770    6.9940 C.2   306  ASP306      0.2266
    123  O         48.3750   34.1970    7.1790 O.2   306  ASP306     -0.2867
    124  CB        47.3570   31.6410    6.4780 C.3   306  ASP306      0.1410
    125  CG        47.1020   31.1720    7.9000 C.2   306  ASP306      0.3668
    126  OD1       47.3860   31.9320    8.8490 O.co2 306  ASP306     -0.2456
    127  OD2       46.6140   30.0370    8.0700 O.co2 306  ASP306     -0.2456
    128  N         47.3060   34.5550   10.0270 N.3   308  GLY308     -0.1210
    129  CA        48.1100   34.1160   11.1510 C.3   308  GLY308      0.1956
    130  C         49.5790   34.0340   10.7880 C.2   308  GLY308      0.2611
    131  O         50.4270   34.6220   11.4620 O.2   308  GLY308     -0.2717
    132  N         49.8810   33.3150    9.7110 N.am  309  PHE309     -0.1976
    133  CA        51.2610   33.1020    9.2980 C.3   309  PHE309      0.1639
    134  C         51.8910   34.4070    8.8150 C.2   309  PHE309      0.2290
    135  O         53.0220   34.7260    9.1800 O.2   309  PHE309     -0.2864
    136  CB        51.3180   32.0480    8.1860 C.3   309  PHE309      0.0560
    137  CG        52.7100   31.5930    7.8450 C.ar  309  PHE309     -0.0200
    138  CD1       53.4840   30.9150    8.7800 C.ar  309  PHE309     -0.0042
    139  CD2       53.2440   31.8320    6.5810 C.ar  309  PHE309     -0.0042
    140  CE1       54.7700   30.4800    8.4640 C.ar  309  PHE309     -0.0003
    141  CE2       54.5260   31.4020    6.2530 C.ar  309  PHE309     -0.0003
    142  CZ        55.2930   30.7250    7.1940 C.ar  309  PHE309     -0.0000
    143  N         56.6910   25.0890    5.1760 N.3   323  TRP323     -0.1241
    144  CA        56.3520   26.4910    5.4070 C.3   323  TRP323      0.1605
    145  C         57.5780   27.3520    5.1390 C.2   323  TRP323      0.2264
    146  O         58.6780   27.0540    5.6100 O.2   323  TRP323     -0.2867
    147  CB        55.9030   26.7070    6.8550 C.3   323  TRP323      0.0550
    148  CG        54.6350   26.0130    7.2260 C.ar  323  TRP323      0.0003
    149  CD1       54.4990   24.7160    7.6440 C.ar  323  TRP323      0.0946
    150  CD2       53.3220   26.5880    7.2720 C.ar  323  TRP323      0.0152
    151  NE1       53.1870   24.4540    7.9520 N.ar  323  TRP323     -0.2442
    152  CE2       52.4430   25.5840    7.7340 C.ar  323  TRP323      0.0810
    153  CE3       52.8040   27.8560    6.9710 C.ar  323  TRP323      0.0012
    154  CZ2       51.0730   25.8080    7.9050 C.ar  323  TRP323      0.0191
    155  CZ3       51.4420   28.0780    7.1420 C.ar  323  TRP323      0.0001
    156  CH2       50.5930   27.0570    7.6060 C.ar  323  TRP323      0.0015
    157  N         56.3820   22.2160   10.3510 N.3   335  ILE335     -0.1245
    158  CA        55.7000   22.6270   11.5720 C.3   335  ILE335      0.1561
    159  C         54.6350   21.6030   11.9310 C.2   335  ILE335      0.2260
    160  O         53.8940   21.1470   11.0650 O.2   335  ILE335     -0.2867
    161  CB        55.0110   24.0010   11.4000 C.3   335  ILE335      0.0252
    162  CG1       56.0260   25.0440   10.9220 C.3   335  ILE335      0.0019
    163  CG2       54.3900   24.4370   12.7240 C.3   335  ILE335      0.0019
    164  CD1       55.4240   26.4300   10.7050 C.3   335  ILE335      0.0001
    165  N         51.5690   20.7790   15.1400 N.3   337  ILE337     -0.1245
    166  CA        50.8690   21.3480   16.2900 C.3   337  ILE337      0.1561
    167  C         51.5120   20.9650   17.6200 C.2   337  ILE337      0.2260
    168  O         52.2200   19.9550   17.7220 O.2   337  ILE337     -0.2867
    169  CB        49.3700   20.9400   16.3170 C.3   337  ILE337      0.0252
    170  CG1       49.2240   19.4210   16.1750 C.3   337  ILE337      0.0019
    171  CG2       48.6090   21.6760   15.2180 C.3   337  ILE337      0.0019
    172  CD1       47.8110   18.9360   16.4050 C.3   337  ILE337      0.0001
    173  N         47.4690   25.0620   18.7440 N.3   362  ASP362     -0.1239
    174  CA        47.7800   26.1450   17.8200 C.3   362  ASP362      0.1674
    175  C         47.1690   27.4640   18.2850 C.2   362  ASP362      0.2266
    176  O         45.9760   27.6970   18.0990 O.2   362  ASP362     -0.2867
    177  CB        47.2480   25.7780   16.4320 C.3   362  ASP362      0.1410
    178  CG        47.5470   26.8330   15.3880 C.2   362  ASP362      0.3668
    179  OD1       48.3540   27.7480   15.6630 O.co2 362  ASP362     -0.2456
    180  OD2       46.9670   26.7430   14.2870 O.co2 362  ASP362     -0.2456
    181  N         52.9480   30.3210   19.2340 N.3   367  HIS367     -0.1241
    182  CA        53.7600   30.5470   18.0410 C.3   367  HIS367      0.1621
    183  C         54.6670   31.7630   18.1860 C.2   367  HIS367      0.2264
    184  O         55.7970   31.7560   17.7050 O.2   367  HIS367     -0.2867
    185  CB        52.8710   30.7030   16.8060 C.3   367  HIS367      0.0745
    186  CG        52.3780   29.4010   16.2580 C.ar  367  HIS367      0.0817
    187  ND1       53.1960   28.5250   15.5770 N.ar  367  HIS367     -0.2268
    188  CD2       51.1580   28.8140   16.3100 C.ar  367  HIS367      0.1154
    189  CE1       52.5030   27.4540   15.2340 C.ar  367  HIS367      0.1986
    190  NE2       51.2630   27.6040   15.6670 N.ar  367  HIS367     -0.2212
    191  N         58.5080   30.9360   17.7850 N.3   371  ASN371     -0.1240
    192  CA        59.2350   31.5680   16.6900 C.3   371  ASN371      0.1653
    193  C         60.2910   32.5380   17.2100 C.2   371  ASN371      0.2266
    194  O         61.3430   32.7130   16.5940 O.2   371  ASN371     -0.2867
    195  CB        58.2600   32.2910   15.7540 C.3   371  ASN371      0.1155
    196  CG        57.5420   31.3380   14.8140 C.2   371  ASN371      0.2627
    197  OD1       58.1270   30.3650   14.3370 O.2   371  ASN371     -0.2716
    198  ND2       56.2710   31.6130   14.5420 N.am  371  ASN371     -0.0877
@<TRIPOS>BOND
     1    77    78    1
     2    14    15    1
     3   120   121    1
     4    78    79    1
     5    78    81    1
     6    18    15    1
     7    18    19    1
     8   145   144    1
     9   145   146    2
    10   143   144    1
    11    79    80    2
    12    92    91    2
    13   144   147    1
    14    91    90    1
    15    15    16    1
    16    20    19   ar
    17    20    22   ar
    18    19    21   ar
    19   121   124    1
    20   121   122    1
    21    89    90    1
    22   141   139   ar
    23   141   142   ar
    24    81    82    1
    25    90    93    1
    26   124   125    1
    27    17    16    2
    28    22    24   ar
    29   139   137   ar
    30    83    82   ar
    31    83    85   ar
    32   147   148    1
    33    82    84   ar
    34   153   155   ar
    35   153   150   ar
    36   122   123    2
    37    53    54   ar
    38    53    51   ar
    39    21    23   ar
    40   155   156   ar
    41    85    87   ar
    42   142   140   ar
    43   148   150   ar
    44   148   149   ar
    45    54    52   ar
    46   150   152   ar
    47   110   107    1
    48   110   111    1
    49   106   107    1
    50   156   154   ar
    51   107   108    1
    52   149   151   ar
    53    24    23   ar
    54    24    25    1
    55   152   154   ar
    56   152   151   ar
    57    51    50   ar
    58    84    86   ar
    59   137   136    1
    60   137   138   ar
    61    93    94    1
    62   125   127   ar
    63   125   126   ar
    64    87    86   ar
    65    87    88    1
    66    52    50   ar
    67   136   133    1
    68   112   111   ar
    69   112   114   ar
    70   111   113   ar
    71   140   138   ar
    72    50    49    1
    73    97    96    1
    74    97    98    2
    75   134   135    2
    76   134   133    1
    77    95    96    1
    78    96    99    1
    79   108   109    2
    80   108   116    1
    81    12    11    2
    82   133   132    1
    83   114   115   ar
    84    49    46    1
    85   113   115   ar
    86   132   130   am
    87    46    45    1
    88    46    47    1
    89   116   117    2
    90   128   129    1
    91    11    10    1
    92   157   158    1
    93    13    10    1
    94   101   100   ar
    95   101   103   ar
    96    99   100    1
    97    48    47    2
    98   164   162    1
    99   130   129    1
   100   130   131    2
   101    10     9    1
   102    47    55   am
   103   100   102   ar
   104   162   161    1
   105    38    39    1
   106   103   105   ar
   107   160   159    2
   108   117   118    1
   109   161   158    1
   110   161   163    1
   111    37    36    1
   112    39    40    1
   113    39    42    1
   114    44    42    1
   115   158   159    1
   116   102   104   ar
   117   105   104   ar
   118     4     3    2
   119    55    56    1
   120     9     3   am
   121   118   119    2
   122    41    40    2
   123    42    43    1
   124     3     2    1
   125    36    34   ar
   126    36    35   ar
   127    34    32   ar
   128    56    57    1
   129    56    59    1
   130    57    58    2
   131    61    60   ar
   132    35    33   ar
   133     2     1    1
   134     2     5    1
   135    32    31   ar
   136   180   178   ar
   137   197   196    2
   138    59    60    1
   139    60    62   ar
   140   198   196   am
   141   196   195    1
   142    71    69   ar
   143    71    72   ar
   144    33    31   ar
   145     5     6    1
   146    69    68   ar
   147    74    72   ar
   148    74    76   ar
   149    72    70   ar
   150   165   166    1
   151    31    30    1
   152   171   169    1
   153   189   187   ar
   154   189   190   ar
   155    63    64    1
   156    76    75   ar
   157   178   179   ar
   158   178   177    1
   159    68    70   ar
   160    68    67    1
   161    70    73   ar
   162    26    27    1
   163   187   186   ar
   164   190   188   ar
   165    75    73   ar
   166   195   192    1
   167    67    64    1
   168     7     6    1
   169     7     8    1
   170   170   169    1
   171   170   172    1
   172    27    30    1
   173    27    28    1
   174   186   188   ar
   175   186   185    1
   176   166   169    1
   177   166   167    1
   178    64    65    1
   179   177   174    1
   180   194   193    2
   181   192   193    1
   182   192   191    1
   183   185   182    1
   184    65    66    2
   185    28    29    2
   186   167   168    2
   187   184   183    2
   188   174   175    1
   189   174   173    1
   190   182   183    1
   191   182   181    1
   192   176   175    2
