@<TRIPOS>MOLECULE
tmp/2zmbA03.pdb
 73 71 0 0 0
SMALL
GASTEIGER

@<TRIPOS>ATOM
      1  N         18.1970   16.2140   10.9360 N.3    89  THR89      -0.1218
      2  CA        17.8030   14.8130   10.7110 C.3    89  THR89       0.1862
      3  C         16.4130   14.7690   10.0520 C.2    89  THR89       0.2287
      4  O         15.5160   15.5340   10.4000 O.2    89  THR89      -0.2866
      5  CB        17.6990   13.9900   12.0320 C.3    89  THR89       0.1770
      6  OG1       17.0750   14.7780   13.0580 O.3    89  THR89      -0.2211
      7  CG2       19.0760   13.5550   12.4910 C.3    89  THR89       0.0375
      8  N         11.9340    9.2530   14.8410 N.3   252  PRO252     -0.2102
      9  CA        13.1270   10.0510   15.1620 C.3   252  PRO252      0.1504
     10  C         14.3790    9.1520   15.0520 C.2   252  PRO252      0.2575
     11  O         14.4240    8.0560   15.6250 O.2   252  PRO252     -0.2718
     12  CB        12.8530   10.5140   16.5900 C.3   252  PRO252      0.0282
     13  CG        11.9740    9.4020   17.1590 C.3   252  PRO252      0.0208
     14  CD        11.0580    9.1040   16.0210 C.3   252  PRO252      0.0893
     15  N         15.3830    9.6140   14.3090 N.am  253  ASN253     -0.1975
     16  CA        16.5990    8.8390   14.0980 C.3   253  ASN253      0.1688
     17  C         17.2030    8.2510   15.3560 C.2   253  ASN253      0.2292
     18  O         17.0290    8.7880   16.4540 O.2   253  ASN253     -0.2864
     19  CB        17.6560    9.7000   13.4150 C.3   253  ASN253      0.1181
     20  CG        17.3160    9.9960   11.9880 C.2   253  ASN253      0.2629
     21  OD1       16.4800    9.3300   11.3840 O.2   253  ASN253     -0.2716
     22  ND2       17.9680   10.9890   11.4260 N.am  253  ASN253     -0.0877
     23  N         19.8930   23.2660   19.2660 N.3   312  GLY312     -0.1225
     24  CA        18.7240   23.6050   20.0450 C.3   312  GLY312      0.1811
     25  C         18.8900   22.8660   21.3470 C.2   312  GLY312      0.2280
     26  O         17.9780   22.8460   22.1710 O.2   312  GLY312     -0.2866
     27  N         18.4360   20.0530   22.6510 N.3   314  PRO314     -0.2116
     28  CA        17.1680   19.4540   23.0630 C.3   314  PRO314      0.1372
     29  C         17.1890   18.3780   24.1280 C.2   314  PRO314      0.2244
     30  O         18.1390   17.5990   24.2240 O.2   314  PRO314     -0.2868
     31  CB        16.6260   18.9150   21.7460 C.3   314  PRO314      0.0268
     32  CG        17.8600   18.3770   21.1180 C.3   314  PRO314      0.0207
     33  CD        18.8440   19.5150   21.3330 C.3   314  PRO314      0.0892
     34  N         12.0180   16.5720   23.6480 N.3   318  GLU318     -0.1231
     35  CA        12.0430   17.4150   22.4710 C.3   318  GLU318      0.1699
     36  C         12.6620   16.6650   21.3120 C.2   318  GLU318      0.2592
     37  O         12.2530   16.8360   20.1590 O.2   318  GLU318     -0.2718
     38  CB        12.8570   18.6590   22.7550 C.3   318  GLU318      0.0402
     39  CG        12.2990   19.4920   23.8580 C.3   318  GLU318      0.1161
     40  CD        13.2480   20.5890   24.2430 C.2   318  GLU318      0.3649
     41  OE1       14.4300   20.2850   24.5110 O.co2 318  GLU318     -0.2457
     42  OE2       12.8200   21.7600   24.2830 O.co2 318  GLU318     -0.2457
     43  N         13.6710   15.8510   21.6130 N.am  319  TYR319     -0.1962
     44  CA        14.2890   15.0910   20.5520 C.3   319  TYR319      0.1771
     45  C         13.1880   14.1460   20.0730 C.2   319  TYR319      0.2619
     46  O         12.8130   14.2610   18.9250 O.2   319  TYR319     -0.2715
     47  CB        15.5070   14.2810   20.9930 C.3   319  TYR319      0.0574
     48  CG        16.1150   13.5000   19.8410 C.ar  319  TYR319     -0.0198
     49  CD1       16.8950   14.1360   18.8740 C.ar  319  TYR319     -0.0009
     50  CD2       15.8720   12.1260   19.6980 C.ar  319  TYR319     -0.0009
     51  CE1       17.4170   13.4210   17.7930 C.ar  319  TYR319      0.0417
     52  CE2       16.3850   11.4090   18.6300 C.ar  319  TYR319      0.0417
     53  CZ        17.1500   12.0630   17.6840 C.ar  319  TYR319      0.1957
     54  OH        17.6210   11.3730   16.6040 O.3   319  TYR319     -0.2866
     55  N         12.6330   13.2520   20.8980 N.am  320  LEU320     -0.1963
     56  CA        11.5950   12.3640   20.3650 C.3   320  LEU320      0.1728
     57  C         10.3400   13.0540   19.7760 C.2   320  LEU320      0.2617
     58  O          9.7470   12.5530   18.8140 O.2   320  LEU320     -0.2715
     59  CB        11.1860   11.3730   21.4460 C.3   320  LEU320      0.0311
     60  CG        12.3230   10.4720   21.9490 C.3   320  LEU320      0.0022
     61  CD1       11.8130    9.5860   23.0660 C.3   320  LEU320      0.0001
     62  CD2       12.8840    9.6300   20.8120 C.3   320  LEU320      0.0001
     63  N          9.9550   14.1960   20.3460 N.am  321  GLY321     -0.1940
     64  CA         8.7660   14.9040   19.8950 C.3   321  GLY321      0.2014
     65  C          7.5560   14.6060   20.7710 C.2   321  GLY321      0.2639
     66  O          7.4400   13.5230   21.3550 O.2   321  GLY321     -0.2714
     67  N          6.6520   15.5760   20.8560 N.am  322  THR322     -0.1950
     68  CA         5.4500   15.4440   21.6760 C.3   322  THR322      0.1897
     69  C          4.5590   14.3200   21.1610 C.2   322  THR322      0.2313
     70  O          4.0150   13.5330   21.9430 O.2   322  THR322     -0.2863
     71  CB         4.6200   16.7460   21.6860 C.3   322  THR322      0.1794
     72  OG1        5.4710   17.8670   21.4160 O.3   322  THR322     -0.2208
     73  CG2        3.9550   16.9360   23.0530 C.3   322  THR322      0.0378
@<TRIPOS>BOND
     1     3     4    2
     2     3     2    1
     3     2     1    1
     4     2     5    1
     5    21    20    2
     6    22    20   am
     7    20    19    1
     8     5     7    1
     9     5     6    1
    10    19    16    1
    11    16    15    1
    12    16    17    1
    13    15    10   am
    14     8     9    1
    15     8    14    1
    16    10     9    1
    17    10    11    2
    18     9    12    1
    19    17    18    2
    20    14    13    1
    21    12    13    1
    22    54    53    1
    23    53    51   ar
    24    53    52   ar
    25    51    49   ar
    26    52    50   ar
    27    58    57    2
    28    49    48   ar
    29    46    45    2
    30    23    24    1
    31    50    48   ar
    32    57    63   am
    33    57    56    1
    34    48    47    1
    35    64    63    1
    36    64    65    1
    37    24    25    1
    38    45    44    1
    39    45    55   am
    40    37    36    2
    41    56    55    1
    42    56    59    1
    43    44    47    1
    44    44    43    1
    45    65    67   am
    46    65    66    2
    47    62    60    1
    48    67    68    1
    49    32    33    1
    50    32    31    1
    51    69    68    1
    52    69    70    2
    53    36    43   am
    54    36    35    1
    55    33    27    1
    56    25    26    2
    57    72    71    1
    58    59    60    1
    59    68    71    1
    60    71    73    1
    61    31    28    1
    62    60    61    1
    63    35    38    1
    64    35    34    1
    65    27    28    1
    66    38    39    1
    67    28    29    1
    68    39    40    1
    69    29    30    2
    70    40    42   ar
    71    40    41   ar
