@<TRIPOS>MOLECULE
tmp/2zmcA00.pdb
 140 126 0 0 0
SMALL
GASTEIGER

@<TRIPOS>ATOM
      1  N        -44.9240  -10.4180  -12.9600 N.3    19  GLY19      -0.1225
      2  CA       -44.5950  -10.3560  -14.3840 C.3    19  GLY19       0.1811
      3  C        -44.9340   -9.0640  -15.1050 C.2    19  GLY19       0.2280
      4  O        -44.0260   -8.4280  -15.6470 O.2    19  GLY19      -0.2866
      5  N        -48.2580  -12.4900  -14.6170 N.3    22  SER22      -0.1217
      6  CA       -47.4420  -13.6410  -14.2590 C.3    22  SER22       0.1889
      7  C        -46.9220  -13.3110  -12.8600 C.2    22  SER22       0.2288
      8  O        -46.7770  -12.1370  -12.5220 O.2    22  SER22      -0.2866
      9  CB       -46.2720  -13.8300  -15.2290 C.3    22  SER22       0.2089
     10  OG       -46.6420  -13.4860  -16.5520 O.3    22  SER22      -0.2183
     11  N        -44.0120  -14.9540  -10.0950 N.3    24  VAL24      -0.1245
     12  CA       -43.0570  -15.9590   -9.6380 C.3    24  VAL24       0.1561
     13  C        -42.9470  -15.9320   -8.1080 C.2    24  VAL24       0.2260
     14  O        -43.0450  -14.8720   -7.4920 O.2    24  VAL24      -0.2867
     15  CB       -41.6670  -15.7480  -10.2910 C.3    24  VAL24       0.0252
     16  CG1      -40.6430  -16.7340   -9.7330 C.3    24  VAL24       0.0019
     17  CG2      -41.7670  -15.8940  -11.8030 C.3    24  VAL24       0.0019
     18  N        -44.1000  -20.4530  -11.1810 N.3    38  LYS38      -0.1245
     19  CA       -44.5360  -19.3760  -12.0620 C.3    38  LYS38       0.1561
     20  C        -46.0090  -19.5070  -12.4130 C.2    38  LYS38       0.2260
     21  O        -46.3980  -20.3540  -13.2230 O.2    38  LYS38      -0.2867
     22  CB       -43.7130  -19.3840  -13.3470 C.3    38  LYS38       0.0271
     23  CG       -44.2120  -18.4260  -14.4200 C.3    38  LYS38       0.0035
     24  CD       -43.1630  -18.2260  -15.4950 C.3    38  LYS38       0.0206
     25  CE       -43.7230  -17.4500  -16.6560 C.3    38  LYS38       0.1093
     26  NZ       -42.7460  -17.3890  -17.7610 N.3    38  LYS38      -0.1314
     27  N        -49.3230  -17.9820  -14.1560 N.3    40  VAL40      -0.1245
     28  CA       -49.7200  -17.0950  -15.2370 C.3    40  VAL40       0.1561
     29  C        -51.2330  -17.1390  -15.3270 C.2    40  VAL40       0.2260
     30  O        -51.8330  -18.1980  -15.1540 O.2    40  VAL40      -0.2867
     31  CB       -49.0890  -17.5250  -16.5710 C.3    40  VAL40       0.0252
     32  CG1      -49.5070  -16.6000  -17.6970 C.3    40  VAL40       0.0019
     33  CG2      -47.5770  -17.5560  -16.4460 C.3    40  VAL40       0.0019
     34  N        -47.3540  -19.6660  -25.5710 N.3    53  TYR53      -0.1241
     35  CA       -47.0140  -20.1600  -24.2360 C.3    53  TYR53       0.1605
     36  C        -46.8670  -21.6690  -24.2530 C.2    53  TYR53       0.2264
     37  O        -45.9070  -22.2180  -23.7200 O.2    53  TYR53      -0.2867
     38  CB       -48.0900  -19.7850  -23.2110 C.3    53  TYR53       0.0534
     39  CG       -48.3390  -18.2960  -23.0180 C.ar   53  TYR53      -0.0201
     40  CD1      -47.3560  -17.3410  -23.3130 C.ar   53  TYR53      -0.0009
     41  CD2      -49.5490  -17.8450  -22.4980 C.ar   53  TYR53      -0.0009
     42  CE1      -47.5890  -15.9820  -23.1190 C.ar   53  TYR53       0.0417
     43  CE2      -49.7880  -16.4920  -22.2980 C.ar   53  TYR53       0.0417
     44  CZ       -48.8090  -15.5660  -22.6100 C.ar   53  TYR53       0.1957
     45  OH       -49.0550  -14.2270  -22.4130 O.3    53  TYR53      -0.2866
     46  N        -43.5040  -22.4990  -26.0230 N.3    56  GLU56      -0.1231
     47  CA       -42.3670  -22.3210  -25.1140 C.3    56  GLU56       0.1699
     48  C        -42.3620  -23.3810  -24.0230 C.2    56  GLU56       0.2592
     49  O        -41.3200  -23.9480  -23.7200 O.2    56  GLU56      -0.2718
     50  CB       -42.3400  -20.9300  -24.4730 C.3    56  GLU56       0.0402
     51  CG       -40.9920  -20.6280  -23.7980 C.3    56  GLU56       0.1161
     52  CD       -40.7440  -19.1510  -23.5210 C.2    56  GLU56       0.3649
     53  OE1      -41.3470  -18.2850  -24.1920 O.co2  56  GLU56      -0.2457
     54  OE2      -39.9240  -18.8570  -22.6240 O.co2  56  GLU56      -0.2457
     55  N        -43.5230  -23.6550  -23.4380 N.am   57  ILE57      -0.1980
     56  CA       -43.6290  -24.7220  -22.4490 C.3    57  ILE57       0.1595
     57  C        -43.2030  -26.0300  -23.0780 C.2    57  ILE57       0.2287
     58  O        -42.4550  -26.7930  -22.4800 O.2    57  ILE57      -0.2864
     59  CB       -45.0500  -24.8670  -21.9160 C.3    57  ILE57       0.0276
     60  CG1      -45.4200  -23.6500  -21.0700 C.3    57  ILE57       0.0022
     61  CG2      -45.1610  -26.1160  -21.0730 C.3    57  ILE57       0.0022
     62  CD1      -46.8810  -23.3430  -21.0810 C.3    57  ILE57       0.0001
     63  N        -39.2970  -26.0580  -23.5960 N.3    60  LEU60      -0.1245
     64  CA       -38.6210  -26.0740  -22.3010 C.3    60  LEU60       0.1561
     65  C        -38.6310  -27.4720  -21.7040 C.2    60  LEU60       0.2260
     66  O        -37.6540  -27.8920  -21.0830 O.2    60  LEU60      -0.2867
     67  CB       -39.2570  -25.0760  -21.3200 C.3    60  LEU60       0.0270
     68  CG       -38.4950  -24.8420  -20.0060 C.3    60  LEU60       0.0019
     69  CD1      -37.0400  -24.4410  -20.2500 C.3    60  LEU60       0.0001
     70  CD2      -39.1890  -23.7910  -19.1590 C.3    60  LEU60       0.0001
     71  N        -33.0850  -24.2350  -17.6580 N.3    71  ILE71      -0.1245
     72  CA       -33.6930  -24.2280  -16.3360 C.3    71  ILE71       0.1561
     73  C        -34.5950  -25.4590  -16.2220 C.2    71  ILE71       0.2260
     74  O        -35.3220  -25.7860  -17.1600 O.2    71  ILE71      -0.2867
     75  CB       -34.4440  -22.8710  -16.0650 C.3    71  ILE71       0.0252
     76  CG1      -34.7280  -22.6800  -14.5770 C.3    71  ILE71       0.0019
     77  CG2      -35.7280  -22.7590  -16.8730 C.3    71  ILE71       0.0019
     78  CD1      -35.2700  -21.3100  -14.2410 C.3    71  ILE71       0.0001
     79  N        -51.9140  -21.0500  -15.6140 N.3    83  ILE83      -0.1245
     80  CA       -50.7960  -21.9670  -15.7140 C.3    83  ILE83       0.1561
     81  C        -50.0010  -21.8840  -14.4220 C.2    83  ILE83       0.2260
     82  O        -49.7410  -20.7930  -13.9240 O.2    83  ILE83      -0.2867
     83  CB       -49.8490  -21.5800  -16.8650 C.3    83  ILE83       0.0252
     84  CG1      -50.5800  -21.6000  -18.2040 C.3    83  ILE83       0.0019
     85  CG2      -48.6530  -22.5150  -16.9110 C.3    83  ILE83       0.0019
     86  CD1      -49.6960  -21.2310  -19.3640 C.3    83  ILE83       0.0001
     87  N        -46.2420  -23.4340  -13.0160 N.3    85  MET85      -0.1245
     88  CA       -45.0250  -24.1250  -13.4220 C.3    85  MET85       0.1570
     89  C        -44.0580  -24.2420  -12.2670 C.2    85  MET85       0.2261
     90  O        -43.6700  -23.2390  -11.6900 O.2    85  MET85      -0.2867
     91  CB       -44.3730  -23.3820  -14.5750 C.3    85  MET85       0.0387
     92  CG       -45.1670  -23.4940  -15.8520 C.3    85  MET85       0.0595
     93  SD       -44.4200  -22.6250  -17.2210 S.3    85  MET85      -0.1393
     94  CE       -44.6660  -20.9330  -16.6940 C.3    85  MET85       0.0692
     95  N        -40.3890  -25.0060  -11.1130 N.3    87  MET87      -0.1245
     96  CA       -39.1250  -24.8170  -11.8230 C.3    87  MET87       0.1570
     97  C        -37.9150  -24.7720  -10.9120 C.2    87  MET87       0.2261
     98  O        -38.0270  -24.5620   -9.7040 O.2    87  MET87      -0.2867
     99  CB       -39.1660  -23.5230  -12.6340 C.3    87  MET87       0.0387
    100  CG       -40.3410  -23.4350  -13.5930 C.3    87  MET87       0.0595
    101  SD       -40.2490  -22.0190  -14.6980 S.3    87  MET87      -0.1393
    102  CE       -38.8420  -22.4810  -15.7240 C.3    87  MET87       0.0692
    103  N        -33.2280  -19.1540  -18.9560 N.3   148  ILE148     -0.1231
    104  CA       -34.5280  -19.3740  -18.3230 C.3   148  ILE148      0.1692
    105  C        -35.7000  -19.1720  -19.2660 C.2   148  ILE148      0.2592
    106  O        -36.8420  -19.2380  -18.8230 O.2   148  ILE148     -0.2718
    107  CB       -34.7380  -18.4540  -17.0840 C.3   148  ILE148      0.0266
    108  CG1      -35.0330  -17.0080  -17.4890 C.3   148  ILE148      0.0019
    109  CG2      -33.5260  -18.4970  -16.1720 C.3   148  ILE148      0.0020
    110  CD1      -35.5270  -16.1590  -16.3380 C.3   148  ILE148      0.0001
    111  N        -35.4400  -18.9570  -20.5540 N.am  149  ASP149     -0.1974
    112  CA       -36.4720  -18.4310  -21.4410 C.3   149  ASP149      0.1709
    113  C        -36.0320  -18.4400  -22.9140 C.2   149  ASP149      0.2293
    114  O        -34.8790  -18.1640  -23.2120 O.2   149  ASP149     -0.2864
    115  CB       -36.8200  -17.0250  -20.9270 C.3   149  ASP149      0.1436
    116  CG       -37.2430  -16.0860  -22.0070 C.2   149  ASP149      0.3671
    117  OD1      -38.2430  -16.3770  -22.6940 O.co2 149  ASP149     -0.2456
    118  OD2      -36.5790  -15.0380  -22.1500 O.co2 149  ASP149     -0.2456
    119  N        -42.7590  -16.6720  -26.0830 N.3   153  ALA153     -0.1245
    120  CA       -43.8500  -15.8870  -25.5130 C.3   153  ALA153      0.1562
    121  C        -43.5260  -14.3930  -25.6340 C.2   153  ALA153      0.2260
    122  O        -42.9490  -13.7900  -24.7230 O.2   153  ALA153     -0.2867
    123  CB       -44.0910  -16.2790  -24.0540 C.3   153  ALA153      0.0290
    124  N        -45.4590  -11.5660  -25.7810 N.3   155  GLN155     -0.1231
    125  CA       -46.7600  -10.9520  -25.5370 C.3   155  GLN155      0.1698
    126  C        -47.0970  -10.9780  -24.0350 C.2   155  GLN155      0.2592
    127  O        -46.6500  -11.8720  -23.3150 O.2   155  GLN155     -0.2718
    128  CB       -47.8250  -11.7080  -26.3470 C.3   155  GLN155      0.0381
    129  CG       -49.2750  -11.3370  -26.0390 C.3   155  GLN155      0.0905
    130  CD       -49.5740   -9.8630  -26.2630 C.2   155  GLN155      0.2608
    131  OE1      -49.0780   -9.2630  -27.2170 O.2   155  GLN155     -0.2717
    132  NE2      -50.3920   -9.2730  -25.3840 N.am  155  GLN155     -0.0878
    133  N        -47.8600   -9.9840  -23.5700 N.am  156  MET156     -0.1979
    134  CA       -48.4210   -9.9640  -22.2040 C.3   156  MET156      0.1605
    135  C        -49.7960   -9.2800  -22.1760 C.2   156  MET156      0.2287
    136  O        -50.3370   -8.9730  -21.1080 O.2   156  MET156     -0.2864
    137  CB       -47.4650   -9.2570  -21.2300 C.3   156  MET156      0.0413
    138  CG       -46.3960  -10.1600  -20.6150 C.3   156  MET156      0.0598
    139  SD       -46.3540  -10.0540  -18.7970 S.3   156  MET156     -0.1393
    140  CE       -47.9500  -10.7730  -18.3390 C.3   156  MET156      0.0692
@<TRIPOS>BOND
     1   131   130    2
     2   128   129    1
     3   128   125    1
     4   130   129    1
     5   130   132   am
     6   119   120    1
     7    46    47    1
     8   124   125    1
     9   121   120    1
    10   121   122    2
    11    34    35    1
    12   125   126    1
    13   120   123    1
    14    47    50    1
    15    47    48    1
    16    50    51    1
    17    36    35    1
    18    36    37    2
    19    35    38    1
    20    53    52   ar
    21   126   133   am
    22   126   127    2
    23    48    49    2
    24    48    55   am
    25    51    52    1
    26    63    64    1
    27   133   134    1
    28    52    54   ar
    29    55    56    1
    30    40    42   ar
    31    40    39   ar
    32   114   113    2
    33    38    39    1
    34    42    44   ar
    35    57    58    2
    36    57    56    1
    37    39    41   ar
    38   113   112    1
    39   117   116   ar
    40    44    45    1
    41    44    43   ar
    42    41    43   ar
    43    56    59    1
    44    64    65    1
    45    64    67    1
    46   134   135    1
    47   134   137    1
    48   135   136    2
    49   118   116   ar
    50   116   115    1
    51    59    61    1
    52    59    60    1
    53    65    66    2
    54   112   115    1
    55   112   111    1
    56    67    68    1
    57   137   138    1
    58    62    60    1
    59   138   139    1
    60   111   105   am
    61    69    68    1
    62    68    70    1
    63    86    84    1
    64   105   106    2
    65   105   104    1
    66   103   104    1
    67   139   140    1
    68   104   107    1
    69    84    83    1
    70    26    25    1
    71    32    31    1
    72    71    72    1
    73   108   107    1
    74   108   110    1
    75    93    94    1
    76    93    92    1
    77    74    73    2
    78   107   109    1
    79    85    83    1
    80    77    75    1
    81    83    80    1
    82    25    24    1
    83    31    33    1
    84    31    28    1
    85    10     9    1
    86    72    73    1
    87    72    75    1
    88    75    76    1
    89    92    91    1
    90   102   101    1
    91    80    79    1
    92    80    81    1
    93     4     3    2
    94    24    23    1
    95    29    28    1
    96    29    30    2
    97    28    27    1
    98     9     6    1
    99     3     2    1
   100   101   100    1
   101     5     6    1
   102    76    78    1
   103    91    88    1
   104    81    82    2
   105    23    22    1
   106     2     1    1
   107     6     7    1
   108   100    99    1
   109    88    87    1
   110    88    89    1
   111    22    19    1
   112    21    20    2
   113     7     8    2
   114    99    96    1
   115    20    19    1
   116    89    90    2
   117    19    18    1
   118    96    95    1
   119    96    97    1
   120    17    15    1
   121    97    98    2
   122    15    16    1
   123    15    12    1
   124    11    12    1
   125    12    13    1
   126    13    14    2
