@<TRIPOS>MOLECULE
tmp/2zmdA00.pdb
 108 100 0 0 0
SMALL
GASTEIGER

@<TRIPOS>ATOM
      1  N        -40.6180  -14.3410   -6.2420 N.3    16  ILE16      -0.1231
      2  CA       -39.3960  -13.9310   -6.9320 C.3    16  ILE16       0.1692
      3  C        -39.7170  -12.9020   -8.0110 C.2    16  ILE16       0.2592
      4  O        -39.1510  -11.8090   -8.0360 O.2    16  ILE16      -0.2718
      5  CB       -38.7100  -15.1280   -7.6290 C.3    16  ILE16       0.0266
      6  CG1      -38.2530  -16.1780   -6.6150 C.3    16  ILE16       0.0019
      7  CG2      -37.5280  -14.6500   -8.4390 C.3    16  ILE16       0.0020
      8  CD1      -37.7120  -17.4430   -7.2610 C.3    16  ILE16       0.0001
      9  N        -40.6300  -13.2740   -8.9040 N.am   17  GLY17      -0.1957
     10  CA       -40.9870  -12.4540  -10.0550 C.3    17  GLY17       0.1869
     11  C        -42.4560  -12.0790  -10.0420 C.2    17  GLY17       0.2309
     12  O        -43.2900  -12.8180   -9.5080 O.2    17  GLY17      -0.2863
     13  N        -43.7270  -15.6260  -10.5490 N.3    24  VAL24      -0.1245
     14  CA       -42.7900  -16.6790  -10.1880 C.3    24  VAL24       0.1561
     15  C        -42.6540  -16.6980   -8.6670 C.2    24  VAL24       0.2260
     16  O        -42.2650  -15.7040   -8.0630 O.2    24  VAL24      -0.2867
     17  CB       -41.4160  -16.4560  -10.8400 C.3    24  VAL24       0.0252
     18  CG1      -40.5180  -17.6610  -10.6110 C.3    24  VAL24       0.0019
     19  CG2      -41.5750  -16.1870  -12.3300 C.3    24  VAL24       0.0019
     20  N        -39.0180  -23.3700   -7.9800 N.3    36  ALA36      -0.1245
     21  CA       -39.7060  -22.1670   -8.4360 C.3    36  ALA36       0.1562
     22  C        -40.9970  -22.6100   -9.1000 C.2    36  ALA36       0.2260
     23  O        -41.0220  -23.6460   -9.7620 O.2    36  ALA36      -0.2867
     24  CB       -38.8510  -21.3960   -9.4130 C.3    36  ALA36       0.0290
     25  N        -43.7410  -20.9190  -11.6640 N.3    38  LYS38      -0.1245
     26  CA       -44.2690  -19.8640  -12.5140 C.3    38  LYS38       0.1561
     27  C        -45.7740  -20.0700  -12.6470 C.2    38  LYS38       0.2260
     28  O        -46.2270  -21.1580  -13.0200 O.2    38  LYS38      -0.2867
     29  CB       -43.6010  -19.8990  -13.8930 C.3    38  LYS38       0.0271
     30  CG       -44.1310  -18.8670  -14.8750 C.3    38  LYS38       0.0035
     31  CD       -43.3040  -18.8310  -16.1410 C.3    38  LYS38       0.0206
     32  CE       -43.7630  -17.7120  -17.0630 C.3    38  LYS38       0.1093
     33  NZ       -43.0560  -17.7230  -18.3770 N.3    38  LYS38      -0.1314
     34  N        -32.7120  -24.5440  -18.0320 N.3    71  ILE71      -0.1245
     35  CA       -33.3300  -24.6230  -16.7130 C.3    71  ILE71       0.1561
     36  C        -34.2430  -25.8410  -16.6020 C.2    71  ILE71       0.2260
     37  O        -35.0460  -26.1020  -17.4950 O.2    71  ILE71      -0.2867
     38  CB       -34.1200  -23.3260  -16.4110 C.3    71  ILE71       0.0252
     39  CG1      -34.5140  -23.2560  -14.9380 C.3    71  ILE71       0.0019
     40  CG2      -35.3520  -23.2120  -17.3120 C.3    71  ILE71       0.0019
     41  CD1      -34.9790  -21.8900  -14.5260 C.3    71  ILE71       0.0001
     42  N        -40.3040  -25.6700  -11.2650 N.3    87  MET87      -0.1230
     43  CA       -38.9920  -25.5120  -11.8900 C.3    87  MET87       0.1702
     44  C        -37.8350  -25.4600  -10.8950 C.2    87  MET87       0.2592
     45  O        -38.0050  -25.1630   -9.7140 O.2    87  MET87      -0.2718
     46  CB       -38.9640  -24.2320  -12.7310 C.3    87  MET87       0.0401
     47  CG       -39.9310  -24.2290  -13.9000 C.3    87  MET87       0.0596
     48  SD       -39.8860  -22.6770  -14.8130 S.3    87  MET87      -0.1393
     49  CE       -38.2440  -22.7740  -15.5210 C.3    87  MET87       0.0692
     50  N        -36.6540  -25.7630  -11.4180 N.am   88  GLU88      -0.1966
     51  CA       -35.3880  -25.5360  -10.7400 C.3    88  GLU88       0.1733
     52  C        -35.3500  -24.1010  -10.2400 C.2    88  GLU88       0.2616
     53  O        -35.7100  -23.1760  -10.9690 O.2    88  GLU88      -0.2715
     54  CB       -34.2500  -25.7810  -11.7370 C.3    88  GLU88       0.0429
     55  CG       -32.8350  -25.6550  -11.2050 C.3    88  GLU88       0.1163
     56  CD       -31.7930  -26.0180  -12.2570 C.2    88  GLU88       0.3649
     57  OE1      -32.0290  -25.7700  -13.4620 O.co2  88  GLU88      -0.2457
     58  OE2      -30.7330  -26.5580  -11.8770 O.co2  88  GLU88      -0.2457
     59  N        -34.9260  -23.9250   -8.9930 N.am   89  CYS89      -0.1954
     60  CA       -34.8810  -22.6070   -8.3720 C.3    89  CYS89       0.1843
     61  C        -33.4780  -22.0040   -8.4430 C.2    89  CYS89       0.2626
     62  O        -32.4900  -22.7090   -8.2580 O.2    89  CYS89      -0.2714
     63  CB       -35.3280  -22.7130   -6.9220 C.3    89  CYS89       0.0997
     64  SG       -35.7990  -21.1350   -6.2350 S.3    89  CYS89      -0.0797
     65  N        -33.3990  -20.7000   -8.6950 N.am   90  GLY90      -0.1940
     66  CA       -32.1170  -20.0240   -8.9390 C.3    90  GLY90       0.2014
     67  C        -31.7840  -18.9110   -7.9570 C.2    90  GLY90       0.2639
     68  O        -32.6660  -18.3670   -7.2840 O.2    90  GLY90      -0.2714
     69  N        -30.5030  -18.5560   -7.8960 N.am   91  ASN91      -0.1958
     70  CA       -30.0200  -17.5650   -6.9310 C.3    91  ASN91       0.1819
     71  C        -30.3990  -16.1440   -7.3550 C.2    91  ASN91       0.2621
     72  O        -31.0740  -15.4280   -6.6150 O.2    91  ASN91      -0.2715
     73  CB       -28.4990  -17.6750   -6.7520 C.3    91  ASN91       0.1195
     74  CG       -28.0330  -19.1010   -6.4910 C.2    91  ASN91       0.2630
     75  OD1      -28.8370  -19.9880   -6.2050 O.2    91  ASN91      -0.2716
     76  ND2      -26.7280  -19.3260   -6.5980 N.am   91  ASN91      -0.0877
     77  N        -29.9660  -15.7560   -8.5530 N.am   92  ILE92      -0.1963
     78  CA       -30.2260  -14.4230   -9.0960 C.3    92  ILE92       0.1727
     79  C        -30.1680  -14.4790  -10.6220 C.2    92  ILE92       0.2616
     80  O        -29.4840  -15.3390  -11.1780 O.2    92  ILE92      -0.2715
     81  CB       -29.1790  -13.4100   -8.5730 C.3    92  ILE92       0.0290
     82  CG1      -29.6380  -11.9710   -8.8280 C.3    92  ILE92       0.0022
     83  CG2      -27.8100  -13.6660   -9.2020 C.3    92  ILE92       0.0023
     84  CD1      -28.7060  -10.9230   -8.2500 C.3    92  ILE92       0.0001
     85  N        -30.8840  -13.5840  -11.3010 N.am   93  ASP93      -0.1971
     86  CA       -30.7570  -13.4660  -12.7610 C.3    93  ASP93       0.1709
     87  C        -29.4800  -12.6930  -13.0840 C.2    93  ASP93       0.2293
     88  O        -28.9870  -11.9320  -12.2560 O.2    93  ASP93      -0.2864
     89  CB       -31.9830  -12.7930  -13.3890 C.3    93  ASP93       0.1436
     90  CG       -31.9380  -11.2830  -13.2960 C.2    93  ASP93       0.3671
     91  OD1      -32.2590  -10.7530  -12.2200 O.co2  93  ASP93      -0.2456
     92  OD2      -31.5920  -10.6230  -14.3010 O.co2  93  ASP93      -0.2456
     93  N        -30.1590  -17.2340  -15.7760 N.3   139  LEU139     -0.1245
     94  CA       -30.3330  -17.4580  -14.3430 C.3   139  LEU139      0.1561
     95  C        -29.1040  -18.1460  -13.7500 C.2   139  LEU139      0.2260
     96  O        -28.6630  -19.1780  -14.2560 O.2   139  LEU139     -0.2867
     97  CB       -31.5600  -18.3420  -14.1180 C.3   139  LEU139      0.0270
     98  CG       -32.1260  -18.4210  -12.7030 C.3   139  LEU139      0.0019
     99  CD1      -32.9180  -17.1600  -12.4130 C.3   139  LEU139      0.0001
    100  CD2      -32.9970  -19.6630  -12.5400 C.3   139  LEU139      0.0001
    101  N        -33.3700  -19.3310  -19.2620 N.3   148  ILE148     -0.1245
    102  CA       -34.6880  -19.4880  -18.6540 C.3   148  ILE148      0.1561
    103  C        -35.7830  -19.6230  -19.7070 C.2   148  ILE148      0.2260
    104  O        -36.6920  -20.4360  -19.5310 O.2   148  ILE148     -0.2867
    105  CB       -35.0290  -18.3640  -17.6250 C.3   148  ILE148      0.0252
    106  CG1      -35.3330  -17.0240  -18.2940 C.3   148  ILE148      0.0019
    107  CG2      -33.8970  -18.1860  -16.6340 C.3   148  ILE148      0.0019
    108  CD1      -35.7450  -15.9490  -17.2900 C.3   148  ILE148      0.0001
@<TRIPOS>BOND
     1   103   104    2
     2   103   102    1
     3   101   102    1
     4   102   105    1
     5    33    32    1
     6   106   105    1
     7   106   108    1
     8    34    35    1
     9   105   107    1
    10    37    36    2
    11    40    38    1
    12    32    31    1
    13    35    36    1
    14    35    38    1
    15    38    39    1
    16    31    30    1
    17    93    94    1
    18    49    48    1
    19    39    41    1
    20    30    29    1
    21    48    47    1
    22    94    97    1
    23    94    95    1
    24    92    90   ar
    25    96    95    2
    26    97    98    1
    27    47    46    1
    28    29    26    1
    29    57    56   ar
    30    89    90    1
    31    89    86    1
    32    90    91   ar
    33    87    86    1
    34    87    88    2
    35    28    27    2
    36    86    85    1
    37    46    43    1
    38    98   100    1
    39    98    99    1
    40    27    26    1
    41    26    25    1
    42    19    17    1
    43    56    58   ar
    44    56    55    1
    45    43    42    1
    46    43    44    1
    47    54    55    1
    48    54    51    1
    49    50    44   am
    50    50    51    1
    51    85    79   am
    52    80    79    2
    53    53    52    2
    54    44    45    2
    55    17    18    1
    56    17    14    1
    57    51    52    1
    58    79    78    1
    59    13    14    1
    60    52    59   am
    61    14    15    1
    62    10    11    1
    63    10     9    1
    64    11    12    2
    65    23    22    2
    66    24    21    1
    67    83    81    1
    68    22    21    1
    69    78    81    1
    70    78    77    1
    71    59    60    1
    72    66    65    1
    73    66    67    1
    74     9     3   am
    75    82    81    1
    76    82    84    1
    77    65    61   am
    78    15    16    2
    79    77    71   am
    80    61    60    1
    81    61    62    2
    82     7     5    1
    83    21    20    1
    84    60    63    1
    85     4     3    2
    86     3     2    1
    87    67    69   am
    88    67    68    2
    89    69    70    1
    90     5     2    1
    91     5     6    1
    92    71    70    1
    93    71    72    2
    94     8     6    1
    95     2     1    1
    96    70    73    1
    97    63    64    1
    98    73    74    1
    99    76    74   am
   100    74    75    2
