@<TRIPOS>MOLECULE
tmp/2zmfA00.pdb
 164 156 0 0 0
SMALL
GASTEIGER

@<TRIPOS>ATOM
      1  N         11.3030   25.9990   57.4860 N.3    40  ARG40      -0.1231
      2  CA        10.5420   27.0300   56.7900 C.3    40  ARG40       0.1694
      3  C          9.0550   26.7580   56.8050 C.2    40  ARG40       0.2592
      4  O          8.6290   25.6940   57.2040 O.2    40  ARG40      -0.2718
      5  CB        11.0200   27.1060   55.3300 C.3    40  ARG40       0.0321
      6  CG        12.4700   27.6520   55.2020 C.3    40  ARG40       0.0489
      7  CD        12.6220   28.4740   54.0470 C.3    40  ARG40       0.2205
      8  NE        13.9770   28.8890   53.6950 N.pl3  40  ARG40      -0.0865
      9  CZ        14.2450   29.4430   52.5120 C.cat  40  ARG40       0.5346
     10  NH1       13.2270   29.6500   51.6460 N.pl3  40  ARG40       0.1354
     11  NH2       15.5040   29.8410   52.2060 N.pl3  40  ARG40       0.1354
     12  N          8.2740   27.7070   56.2790 N.am   41  CYS41      -0.1956
     13  CA         6.8120   27.5640   56.2370 C.3    41  CYS41       0.1843
     14  C          6.2390   28.5220   55.2020 C.2    41  CYS41       0.2625
     15  O          6.9560   29.3620   54.6420 O.2    41  CYS41      -0.2714
     16  CB         6.1850   27.7420   57.6490 C.3    41  CYS41       0.0997
     17  SG         6.3940   29.3950   58.3380 S.3    41  CYS41      -0.0797
     18  N          4.9740   28.3190   54.8630 N.am   42  ALA42      -0.1977
     19  CA         4.3090   29.2010   53.9130 C.3    42  ALA42       0.1597
     20  C          2.7960   29.1890   54.0430 C.2    42  ALA42       0.2287
     21  O          2.2340   28.2270   54.4780 O.2    42  ALA42      -0.2864
     22  CB         4.6870   28.8360   52.4550 C.3    42  ALA42       0.0319
     23  N         -0.2280   29.7940   51.2580 N.3    44  PHE44      -0.1241
     24  CA        -0.6420   30.0580   49.8840 C.3    44  PHE44       0.1605
     25  C         -2.1250   30.3570   49.9550 C.2    44  PHE44       0.2264
     26  O         -2.8470   29.7680   50.7950 O.2    44  PHE44      -0.2867
     27  CB        -0.4240   28.8260   48.9940 C.3    44  PHE44       0.0534
     28  CG         1.0320   28.4270   48.8320 C.ar   44  PHE44      -0.0203
     29  CD1        1.8210   28.9820   47.8150 C.ar   44  PHE44      -0.0042
     30  CD2        1.6140   27.4940   49.7110 C.ar   44  PHE44      -0.0042
     31  CE1        3.1460   28.6290   47.6690 C.ar   44  PHE44      -0.0003
     32  CE2        2.9360   27.1330   49.5610 C.ar   44  PHE44      -0.0003
     33  CZ         3.7050   27.7030   48.5360 C.ar   44  PHE44      -0.0000
     34  N          5.7770   33.7990   52.9340 N.3    58  PHE58      -0.1227
     35  CA         6.7990   32.8730   52.4870 C.3    58  PHE58       0.1736
     36  C          8.0270   33.0770   53.3820 C.2    58  PHE58       0.2595
     37  O          8.7090   34.0730   53.2670 O.2    58  PHE58      -0.2718
     38  CB         7.1290   33.1420   50.9920 C.3    58  PHE58       0.0547
     39  CG         7.7220   31.9470   50.2440 C.ar   58  PHE58      -0.0202
     40  CD1        9.0990   31.8830   49.9950 C.ar   58  PHE58      -0.0042
     41  CD2        6.9070   30.9300   49.7510 C.ar   58  PHE58      -0.0042
     42  CE1        9.6690   30.8250   49.2640 C.ar   58  PHE58      -0.0003
     43  CE2        7.4610   29.8330   49.0360 C.ar   58  PHE58      -0.0003
     44  CZ         8.8310   29.7800   48.7870 C.ar   58  PHE58      -0.0000
     45  N          8.2580   32.1600   54.3010 N.am   59  ASP59      -0.1974
     46  CA         9.3750   32.2690   55.2140 C.3    59  ASP59       0.1709
     47  C         10.6230   32.0860   54.3850 C.2    59  ASP59       0.2293
     48  O         10.7100   31.1130   53.6050 O.2    59  ASP59      -0.2864
     49  CB         9.2410   31.1270   56.2130 C.3    59  ASP59       0.1436
     50  CG        10.2510   31.1820   57.3280 C.2    59  ASP59       0.3671
     51  OD1       10.1090   30.3420   58.2250 O.co2  59  ASP59      -0.2456
     52  OD2       11.1890   31.9910   57.4090 O.co2  59  ASP59      -0.2456
     53  N          1.1430   28.9560   40.7350 N.3    78  PHE78      -0.1241
     54  CA         1.1070   27.7850   39.8550 C.3    78  PHE78       0.1605
     55  C         -0.2470   27.0890   39.8590 C.2    78  PHE78       0.2264
     56  O         -1.0570   27.3040   40.7630 O.2    78  PHE78      -0.2867
     57  CB         2.2200   26.7760   40.2240 C.3    78  PHE78       0.0534
     58  CG         2.2460   26.3770   41.6990 C.ar   78  PHE78      -0.0203
     59  CD1        3.0850   27.0330   42.6000 C.ar   78  PHE78      -0.0042
     60  CD2        1.4570   25.3100   42.1740 C.ar   78  PHE78      -0.0042
     61  CE1        3.1070   26.6540   43.9750 C.ar   78  PHE78      -0.0003
     62  CE2        1.4710   24.9350   43.5120 C.ar   78  PHE78      -0.0003
     63  CZ         2.3010   25.6010   44.4240 C.ar   78  PHE78      -0.0000
     64  N          1.6800   19.8730   42.7130 N.3    83  GLY83      -0.1210
     65  CA         2.3130   19.9360   44.0090 C.3    83  GLY83       0.1956
     66  C          1.5750   19.3450   45.1820 C.2    83  GLY83       0.2612
     67  O          0.3790   19.0200   45.1090 O.2    83  GLY83      -0.2717
     68  N          2.2860   19.2190   46.3050 N.am   84  ILE84      -0.1965
     69  CA         1.6200   18.8100   47.5260 C.3    84  ILE84       0.1727
     70  C          0.5800   19.8750   47.9100 C.2    84  ILE84       0.2616
     71  O         -0.5580   19.5510   48.3370 O.2    84  ILE84      -0.2715
     72  CB         2.6310   18.6280   48.6790 C.3    84  ILE84       0.0290
     73  CG1        3.7790   17.6850   48.3080 C.3    84  ILE84       0.0022
     74  CG2        1.8920   18.2510   49.9660 C.3    84  ILE84       0.0023
     75  CD1        3.3630   16.2680   47.7670 C.3    84  ILE84       0.0001
     76  N          0.9750   21.1460   47.7680 N.am   85  ALA85      -0.1977
     77  CA         0.0450   22.2770   47.9910 C.3    85  ALA85       0.1597
     78  C         -1.2300   22.1680   47.1690 C.2    85  ALA85       0.2287
     79  O         -2.3020   22.4370   47.6810 O.2    85  ALA85      -0.2864
     80  CB         0.7580   23.6340   47.6760 C.3    85  ALA85       0.0319
     81  N          4.7850   16.0280   44.1140 N.3   106  PHE106     -0.1227
     82  CA         5.6260   17.1860   44.4880 C.3   106  PHE106      0.1736
     83  C          5.9420   18.0620   43.2750 C.2   106  PHE106      0.2595
     84  O          6.3230   17.5440   42.1790 O.2   106  PHE106     -0.2718
     85  CB         6.9160   16.6930   45.1330 C.3   106  PHE106      0.0547
     86  CG         7.9860   17.7450   45.3350 C.ar  106  PHE106     -0.0202
     87  CD1        7.8160   18.8060   46.2300 C.ar  106  PHE106     -0.0042
     88  CD2        9.2190   17.6010   44.7030 C.ar  106  PHE106     -0.0042
     89  CE1        8.8430   19.7230   46.4510 C.ar  106  PHE106     -0.0003
     90  CE2       10.2680   18.5240   44.9090 C.ar  106  PHE106     -0.0003
     91  CZ        10.0760   19.5970   45.7710 C.ar  106  PHE106     -0.0000
     92  N          5.7920   19.3790   43.4690 N.am  107  ASN107     -0.1974
     93  CA         6.1420   20.3790   42.4490 C.3   107  ASN107      0.1688
     94  C          7.5120   20.9620   42.7590 C.2   107  ASN107      0.2292
     95  O          7.6600   21.8900   43.6080 O.2   107  ASN107     -0.2864
     96  CB         5.1150   21.5300   42.4210 C.3   107  ASN107      0.1181
     97  CG         5.4100   22.5410   41.3440 C.2   107  ASN107      0.2629
     98  OD1        6.2590   22.2990   40.4960 O.2   107  ASN107     -0.2716
     99  ND2        4.7440   23.7000   41.3880 N.am  107  ASN107     -0.0877
    100  N          9.3830   25.1090   42.4400 N.3   110  VAL110     -0.1231
    101  CA         9.7130   26.1480   43.4380 C.3   110  VAL110      0.1692
    102  C         11.1710   26.0270   43.8350 C.2   110  VAL110      0.2592
    103  O         11.8720   27.0100   43.7930 O.2   110  VAL110     -0.2718
    104  CB         8.6940   26.1800   44.6740 C.3   110  VAL110      0.0266
    105  CG1        9.0240   27.3240   45.6670 C.3   110  VAL110      0.0020
    106  CG2        7.2770   26.3280   44.1320 C.3   110  VAL110      0.0020
    107  N         11.6320   24.8340   44.1970 N.am  111  ASP111     -0.1974
    108  CA        13.0610   24.6180   44.5310 C.3   111  ASP111      0.1709
    109  C         13.9510   25.0220   43.3660 C.2   111  ASP111      0.2293
    110  O         15.0060   25.6630   43.5360 O.2   111  ASP111     -0.2864
    111  CB        13.3500   23.1360   44.7930 C.3   111  ASP111      0.1436
    112  CG        12.9100   22.6590   46.1850 C.2   111  ASP111      0.3671
    113  OD1       12.2780   23.4290   46.9800 O.co2 111  ASP111     -0.2456
    114  OD2       13.1510   21.4840   46.5310 O.co2 111  ASP111     -0.2456
    115  N         14.0820   28.8140   43.6920 N.3   114  THR114     -0.1218
    116  CA        14.6800   29.4140   44.8840 C.3   114  THR114      0.1862
    117  C         16.1180   28.9520   45.1180 C.2   114  THR114      0.2287
    118  O         16.8790   29.6790   45.7330 O.2   114  THR114     -0.2866
    119  CB        13.8390   29.0610   46.1600 C.3   114  THR114      0.1770
    120  OG1       13.8500   27.6320   46.3420 O.3   114  THR114     -0.2211
    121  CG2       12.3320   29.4120   45.9400 C.3   114  THR114      0.0375
    122  N         16.4630   26.3770   46.9910 N.3   116  TYR116     -0.1241
    123  CA        16.2640   25.6920   48.2640 C.3   116  TYR116      0.1605
    124  C         15.9750   24.2340   47.9640 C.2   116  TYR116      0.2264
    125  O         15.4070   23.9240   46.9230 O.2   116  TYR116     -0.2867
    126  CB        15.0610   26.3160   48.9800 C.3   116  TYR116      0.0534
    127  CG        14.8180   25.8260   50.3860 C.ar  116  TYR116     -0.0201
    128  CD1       13.8110   24.9250   50.6640 C.ar  116  TYR116     -0.0009
    129  CD2       15.6220   26.2820   51.4490 C.ar  116  TYR116     -0.0009
    130  CE1       13.5610   24.5010   51.9670 C.ar  116  TYR116      0.0417
    131  CE2       15.3840   25.8800   52.7350 C.ar  116  TYR116      0.0417
    132  CZ        14.3450   25.0000   52.9980 C.ar  116  TYR116      0.1957
    133  OH        14.1450   24.5600   54.3040 O.3   116  TYR116     -0.2866
    134  N         13.7740   21.1400   49.1700 N.3   118  THR118     -0.1218
    135  CA        12.6880   20.6530   50.0000 C.3   118  THR118      0.1862
    136  C         12.8140   19.1240   50.2300 C.2   118  THR118      0.2287
    137  O         12.8310   18.3390   49.2650 O.2   118  THR118     -0.2866
    138  CB        11.3140   20.9280   49.3110 C.3   118  THR118      0.1770
    139  OG1       11.0760   22.3430   49.1090 O.3   118  THR118     -0.2211
    140  CG2       10.1520   20.4720   50.2370 C.3   118  THR118      0.0375
    141  N          7.5080   17.8110   53.9280 N.3   121  ILE121     -0.1245
    142  CA         6.4210   18.8190   53.9270 C.3   121  ILE121      0.1561
    143  C          5.2650   18.3600   54.8110 C.2   121  ILE121      0.2260
    144  O          4.7830   17.2480   54.6340 O.2   121  ILE121     -0.2867
    145  CB         5.8700   19.0380   52.4930 C.3   121  ILE121      0.0252
    146  CG1        7.0070   19.4410   51.5180 C.3   121  ILE121      0.0019
    147  CG2        4.7530   20.1420   52.4890 C.3   121  ILE121      0.0019
    148  CD1        6.5900   19.7280   50.0400 C.3   121  ILE121      0.0001
    149  N          1.9800   25.3050   54.7430 N.3   136  GLN136     -0.1245
    150  CA         3.0150   24.2380   54.8010 C.3   136  GLN136      0.1566
    151  C          4.0760   24.5150   55.8440 C.2   136  GLN136      0.2260
    152  O          4.4100   25.6580   56.1160 O.2   136  GLN136     -0.2867
    153  CB         3.6900   24.0870   53.4480 C.3   136  GLN136      0.0367
    154  CG         2.7420   23.7680   52.3290 C.3   136  GLN136      0.0905
    155  CD         3.4340   23.4770   51.0480 C.2   136  GLN136      0.2608
    156  OE1        4.4270   24.1310   50.7040 O.2   136  GLN136     -0.2717
    157  NE2        2.9350   22.4790   50.3280 N.am  136  GLN136     -0.0878
    158  N          8.0860   23.1570   56.1960 N.3   137  VAL137     -0.1245
    159  CA         9.0230   22.5480   55.2520 C.3   137  VAL137      0.1561
    160  C         10.3400   22.2320   55.9890 C.2   137  VAL137      0.2260
    161  O         10.8800   23.0990   56.6760 O.2   137  VAL137     -0.2867
    162  CB         9.2880   23.4780   54.0400 C.3   137  VAL137      0.0252
    163  CG1       10.4010   22.9420   53.1880 C.3   137  VAL137      0.0019
    164  CG2        8.0150   23.6200   53.1640 C.3   137  VAL137      0.0019
@<TRIPOS>BOND
     1    54    55    1
     2    54    57    1
     3    54    53    1
     4    55    56    2
     5    57    58    1
     6    98    97    2
     7    97    99   am
     8    97    96    1
     9    58    60   ar
    10    58    59   ar
    11    60    62   ar
    12    84    83    2
    13    96    93    1
    14   100   101    1
    15    93    94    1
    16    93    92    1
    17    59    61   ar
    18    64    65    1
    19    94    95    2
    20    83    92   am
    21    83    82    1
    22   109   110    2
    23   109   108    1
    24   101   102    1
    25   101   104    1
    26    62    63   ar
    27   115   116    1
    28   103   102    2
    29   102   107   am
    30    61    63   ar
    31    65    66    1
    32    81    82    1
    33   106   104    1
    34   107   108    1
    35    82    85    1
    36   108   111    1
    37   104   105    1
    38    88    90   ar
    39    88    86   ar
    40   111   112    1
    41   116   117    1
    42   116   119    1
    43    90    91   ar
    44    67    66    2
    45   117   118    2
    46    85    86    1
    47    66    68   am
    48    86    87   ar
    49    91    89   ar
    50   121   119    1
    51   119   120    1
    52   112   114   ar
    53   112   113   ar
    54    87    89   ar
    55    68    69    1
    56   125   124    2
    57   122   123    1
    58    78    79    2
    59    78    77    1
    60    69    70    1
    61    69    72    1
    62    31    29   ar
    63    31    33   ar
    64    80    77    1
    65    75    73    1
    66    76    70   am
    67    76    77    1
    68    29    28   ar
    69    70    71    2
    70   124   123    1
    71   123   126    1
    72    73    72    1
    73    33    32   ar
    74    72    74    1
    75    44    43   ar
    76    44    42   ar
    77    28    27    1
    78    28    30   ar
    79   126   127    1
    80    27    24    1
    81    43    41   ar
    82   139   138    1
    83   134   135    1
    84    42    40   ar
    85   137   136    2
    86   138   135    1
    87   138   140    1
    88    32    30   ar
    89    41    39   ar
    90    24    25    1
    91    24    23    1
    92    25    26    2
    93    40    39   ar
    94   135   136    1
    95   148   146    1
    96    39    38    1
    97   157   155   am
    98   127   128   ar
    99   127   129   ar
   100   128   130   ar
   101   156   155    2
   102    38    35    1
   103   155   154    1
   104   129   131   ar
   105   146   145    1
   106    10     9    1
   107   130   132   ar
   108    11     9    1
   109   154   153    1
   110    22    19    1
   111    35    34    1
   112    35    36    1
   113   147   145    1
   114   145   142    1
   115     9     8    2
   116   131   132   ar
   117   132   133    1
   118   164   162    1
   119   163   162    1
   120    37    36    2
   121    36    45   am
   122   153   150    1
   123    48    47    2
   124     8     7    1
   125    19    20    1
   126    19    18    1
   127   142   141    1
   128   142   143    1
   129   162   159    1
   130    20    21    2
   131     7     6    1
   132    45    46    1
   133    47    46    1
   134   144   143    2
   135    15    14    2
   136   149   150    1
   137   150   151    1
   138    18    14   am
   139    14    13    1
   140     6     5    1
   141    46    49    1
   142   159   160    1
   143   159   158    1
   144     5     2    1
   145   151   152    2
   146   160   161    2
   147    49    50    1
   148    13    12    1
   149    13    16    1
   150    12     3   am
   151     2     3    1
   152     2     1    1
   153     3     4    2
   154    50    52   ar
   155    50    51   ar
   156    16    17    1
