@<TRIPOS>MOLECULE
tmp/2zmkB02.pdb
 119 115 0 0 0
SMALL
GASTEIGER

@<TRIPOS>ATOM
      1  N        104.2750    1.9430   52.8870 N.3    84  HIS84      -0.1241
      2  CA       104.3220    2.6310   51.5990 C.3    84  HIS84       0.1621
      3  C        105.1950    3.8930   51.5960 C.2    84  HIS84       0.2264
      4  O        104.9320    4.8570   52.3150 O.2    84  HIS84      -0.2867
      5  CB       102.9030    3.0130   51.1830 C.3    84  HIS84       0.0745
      6  CG       102.1550    3.7670   52.2390 C.ar   84  HIS84       0.0817
      7  ND1      101.0950    3.2230   52.9320 N.ar   84  HIS84      -0.2268
      8  CD2      102.3320    5.0130   52.7420 C.ar   84  HIS84       0.1154
      9  CE1      100.6530    4.1010   53.8150 C.ar   84  HIS84       0.1986
     10  NE2      101.3870    5.1960   53.7210 N.ar   84  HIS84      -0.2212
     11  N        106.8090    7.4940   50.4380 N.3    86  ALA86      -0.1231
     12  CA       106.1350    8.6980   49.9530 C.3    86  ALA86       0.1694
     13  C        107.0740    9.8950   50.0670 C.2    86  ALA86       0.2592
     14  O        108.0030    9.8630   50.8740 O.2    86  ALA86      -0.2718
     15  CB       104.8840    8.9460   50.7610 C.3    86  ALA86       0.0304
     16  N        106.8730   10.9360   49.2560 N.am   87  ASP87      -0.1974
     17  CA       105.8210   11.0070   48.2450 C.3    87  ASP87       0.1709
     18  C        106.3900   11.0670   46.8170 C.2    87  ASP87       0.2293
     19  O        105.7360   10.6680   45.8500 O.2    87  ASP87      -0.2864
     20  CB       104.9440   12.2420   48.4870 C.3    87  ASP87       0.1436
     21  CG       103.7640   11.9470   49.3870 C.2    87  ASP87       0.3671
     22  OD1      103.9050   12.0320   50.6250 O.co2  87  ASP87      -0.2456
     23  OD2      102.6890   11.6080   48.8540 O.co2  87  ASP87      -0.2456
     24  N        103.2710   16.4190   51.2760 N.3   104  GLY104     -0.1210
     25  CA       102.5860   15.1960   50.8970 C.3   104  GLY104      0.1956
     26  C        102.4990   14.9970   49.3940 C.2   104  GLY104      0.2612
     27  O        103.4530   15.2650   48.6580 O.2   104  GLY104     -0.2717
     28  N        101.3410   14.5310   48.9350 N.am  105  GLY105     -0.1942
     29  CA       101.1330   14.2910   47.5170 C.3   105  GLY105      0.2014
     30  C        101.1870   15.5200   46.6300 C.2   105  GLY105      0.2638
     31  O        101.0920   15.4090   45.4140 O.2   105  GLY105     -0.2714
     32  N        101.3390   16.6960   47.2270 N.am  106  TYR106     -0.1973
     33  CA       101.4060   17.9230   46.4460 C.3   106  TYR106      0.1639
     34  C        102.8480   18.3350   46.2000 C.2   106  TYR106      0.2290
     35  O        103.1100   19.3750   45.5830 O.2   106  TYR106     -0.2864
     36  CB       100.6370   19.0380   47.1500 C.3   106  TYR106      0.0560
     37  CG        99.1560   18.7650   47.2170 C.ar  106  TYR106     -0.0198
     38  CD1       98.4090   18.5810   46.0540 C.ar  106  TYR106     -0.0009
     39  CD2       98.5000   18.6680   48.4410 C.ar  106  TYR106     -0.0009
     40  CE1       97.0410   18.3050   46.1100 C.ar  106  TYR106      0.0417
     41  CE2       97.1320   18.3940   48.5090 C.ar  106  TYR106      0.0417
     42  CZ        96.4100   18.2120   47.3410 C.ar  106  TYR106      0.1957
     43  OH        95.0680   17.9200   47.4080 O.3   106  TYR106     -0.2866
     44  N        103.9930    7.5940   45.7490 N.3   126  PHE126     -0.1241
     45  CA       102.8680    7.2330   46.5980 C.3   126  PHE126      0.1605
     46  C        101.5730    7.3620   45.8320 C.2   126  PHE126      0.2264
     47  O        101.3490    8.3670   45.1750 O.2   126  PHE126     -0.2867
     48  CB       102.8030    8.1420   47.8200 C.3   126  PHE126      0.0534
     49  CG       101.6520    7.8410   48.7230 C.ar  126  PHE126     -0.0203
     50  CD1      101.6680    6.7150   49.5300 C.ar  126  PHE126     -0.0042
     51  CD2      100.5290    8.6560   48.7290 C.ar  126  PHE126     -0.0042
     52  CE1      100.5770    6.3980   50.3330 C.ar  126  PHE126     -0.0003
     53  CE2       99.4300    8.3470   49.5280 C.ar  126  PHE126     -0.0003
     54  CZ        99.4560    7.2110   50.3330 C.ar  126  PHE126     -0.0000
     55  N         98.0670    8.4040   45.4940 N.3   128  ASN128     -0.1225
     56  CA        96.9660    9.1830   46.0490 C.3   128  ASN128      0.1785
     57  C         95.6900    8.7810   45.2930 C.2   128  ASN128      0.2598
     58  O         95.7440    7.9850   44.3510 O.2   128  ASN128     -0.2718
     59  CB        97.2140   10.6800   45.8710 C.3   128  ASN128      0.1169
     60  CG        98.1980   11.2260   46.8710 C.2   128  ASN128      0.2627
     61  OD1       99.3650   10.8440   46.8780 O.2   128  ASN128     -0.2716
     62  ND2       97.7200   12.1330   47.7390 N.am  128  ASN128     -0.0877
     63  N         94.5490    9.3270   45.6980 N.am  129  THR129     -0.1939
     64  CA        93.2840    8.9950   45.0520 C.3   129  THR129      0.2028
     65  C         93.2680    9.3370   43.5650 C.2   129  THR129      0.2642
     66  O         92.6400    8.6380   42.7770 O.2   129  THR129     -0.2714
     67  CB        92.0980    9.7200   45.7300 C.3   129  THR129      0.1808
     68  OG1       92.2730   11.1390   45.6210 O.3   129  THR129     -0.2208
     69  CG2       92.0170    9.3420   47.1930 C.3   129  THR129      0.0379
     70  N         93.9690   10.4050   43.1890 N.am  130  TRP130     -0.1973
     71  CA        94.0260   10.8630   41.7970 C.3   130  TRP130      0.1640
     72  C         95.1350   10.2070   40.9660 C.2   130  TRP130      0.2290
     73  O         95.3250   10.5510   39.7950 O.2   130  TRP130     -0.2864
     74  CB        94.2160   12.3780   41.7780 C.3   130  TRP130      0.0576
     75  CG        95.4690   12.8050   42.4770 C.ar  130  TRP130      0.0006
     76  CD1       96.7460   12.6790   42.0160 C.ar  130  TRP130      0.0946
     77  CD2       95.5750   13.3780   43.7920 C.ar  130  TRP130      0.0152
     78  NE1       97.6400   13.1330   42.9550 N.ar  130  TRP130     -0.2442
     79  CE2       96.9510   13.5680   44.0550 C.ar  130  TRP130      0.0810
     80  CE3       94.6410   13.7470   44.7710 C.ar  130  TRP130      0.0012
     81  CZ2       97.4190   14.1120   45.2570 C.ar  130  TRP130      0.0191
     82  CZ3       95.1090   14.2870   45.9720 C.ar  130  TRP130      0.0001
     83  CH2       96.4860   14.4630   46.2010 C.ar  130  TRP130      0.0015
     84  N        106.0830   11.4940   53.5390 N.3   211  GLY211     -0.1210
     85  CA       104.7740   11.2490   54.1180 C.3   211  GLY211      0.1956
     86  C        104.2110   12.3450   54.9920 C.2   211  GLY211      0.2611
     87  O        104.9140   12.9190   55.8210 O.2   211  GLY211     -0.2717
     88  N        102.9290   12.6350   54.8050 N.am  212  ASP212     -0.1973
     89  CA       102.2520   13.6560   55.5920 C.3   212  ASP212      0.1709
     90  C        101.7960   13.0260   56.9110 C.2   212  ASP212      0.2293
     91  O        101.3360   11.8870   56.9400 O.2   212  ASP212     -0.2864
     92  CB       101.0430   14.1890   54.8270 C.3   212  ASP212      0.1436
     93  CG       100.4800   15.4540   55.4390 C.2   212  ASP212      0.3671
     94  OD1      101.1200   16.5210   55.2940 O.co2 212  ASP212     -0.2456
     95  OD2       99.4020   15.3810   56.0720 O.co2 212  ASP212     -0.2456
     96  N         99.1970   13.3560   58.6360 N.3   214  SER214     -0.1202
     97  CA        97.7940   12.9540   58.5970 C.3   214  SER214      0.2020
     98  C         97.6230   11.4710   58.2960 C.2   214  SER214      0.2619
     99  O         96.6130   10.8660   58.6610 O.2   214  SER214     -0.2717
    100  CB        97.0310   13.7800   57.5590 C.3   214  SER214      0.2103
    101  OG        97.4650   13.4720   56.2480 O.3   214  SER214     -0.2182
    102  N         98.6140   10.8890   57.6330 N.am  215  GLY215     -0.1956
    103  CA        98.5500    9.4780   57.3040 C.3   215  GLY215      0.1869
    104  C         98.9740    8.5980   58.4630 C.2   215  GLY215      0.2309
    105  O         98.8690    7.3820   58.3900 O.2   215  GLY215     -0.2863
    106  N        101.7960    7.5770   59.4860 N.3   217  GLN217     -0.1245
    107  CA       102.7530    6.5420   59.1090 C.3   217  GLN217      0.1566
    108  C        104.1700    7.0780   58.9750 C.2   217  GLN217      0.2260
    109  O        104.5580    7.5510   57.9080 O.2   217  GLN217     -0.2867
    110  CB       102.3390    5.9100   57.7870 C.3   217  GLN217      0.0367
    111  CG       101.2200    4.9080   57.9010 C.3   217  GLN217      0.0905
    112  CD       101.5740    3.7690   58.8280 C.2   217  GLN217      0.2608
    113  OE1      102.7420    3.3840   58.9410 O.2   217  GLN217     -0.2717
    114  NE2      100.5660    3.2080   59.4900 N.am  217  GLN217     -0.0878
    115  N        106.2890    6.2740   55.9750 N.3   220  ALA220     -0.1245
    116  CA       105.9770    6.8510   54.6770 C.3   220  ALA220      0.1562
    117  C        107.0260    7.9090   54.3570 C.2   220  ALA220      0.2260
    118  O        106.7740    9.1140   54.4400 O.2   220  ALA220     -0.2867
    119  CB       104.5910    7.4720   54.7010 C.3   220  ALA220      0.0290
@<TRIPOS>BOND
     1    73    72    2
     2    72    71    1
     3    74    71    1
     4    74    75    1
     5    71    70    1
     6    76    75   ar
     7    76    78   ar
     8    75    77   ar
     9    66    65    2
    10    78    79   ar
    11    70    65   am
    12    65    64    1
    13    77    79   ar
    14    77    80   ar
    15    79    81   ar
    16    58    57    2
    17    80    82   ar
    18    64    63    1
    19    64    67    1
    20    47    46    2
    21    81    83   ar
    22    57    63   am
    23    57    56    1
    24    31    30    2
    25    55    56    1
    26    35    34    2
    27    68    67    1
    28    67    69    1
    29    44    45    1
    30    46    45    1
    31    19    18    2
    32    59    56    1
    33    59    60    1
    34    82    83   ar
    35    38    40   ar
    36    38    37   ar
    37    40    42   ar
    38    34    33    1
    39    33    36    1
    40    33    32    1
    41    45    48    1
    42    30    32   am
    43    30    29    1
    44    18    17    1
    45    60    61    2
    46    60    62   am
    47    36    37    1
    48    37    39   ar
    49    42    43    1
    50    42    41   ar
    51    29    28    1
    52    48    49    1
    53    17    20    1
    54    17    16    1
    55    39    41   ar
    56    20    21    1
    57    27    26    2
    58    49    51   ar
    59    49    50   ar
    60    51    53   ar
    61    23    21   ar
    62    28    26   am
    63    16    13   am
    64    21    22   ar
    65    26    25    1
    66    53    54   ar
    67    50    52   ar
    68    12    13    1
    69    12    11    1
    70    12    15    1
    71    13    14    2
    72    54    52   ar
    73    25    24    1
    74     5     2    1
    75     5     6    1
    76     3     2    1
    77     3     4    2
    78     2     1    1
    79     6     8   ar
    80     6     7   ar
    81     8    10   ar
    82     7     9   ar
    83    84    85    1
    84    10     9   ar
    85    85    86    1
    86   117   118    2
    87   117   116    1
    88   116   119    1
    89   116   115    1
    90    88    86   am
    91    88    89    1
    92    92    93    1
    93    92    89    1
    94    86    87    2
    95    94    93   ar
    96    93    95   ar
    97    89    90    1
    98   101   100    1
    99    90    91    2
   100   103   102    1
   101   103   104    1
   102   100    97    1
   103   102    98   am
   104   110   111    1
   105   110   107    1
   106   111   112    1
   107   109   108    2
   108    98    97    1
   109    98    99    2
   110   105   104    2
   111    97    96    1
   112   112   113    2
   113   112   114   am
   114   108   107    1
   115   107   106    1
