@<TRIPOS>MOLECULE
tmp/2zmlD00.pdb
 118 114 0 0 0
SMALL
GASTEIGER

@<TRIPOS>ATOM
      1  N         75.0530    4.0290   -4.9060 N.3    84  HIS84      -0.1241
      2  CA        75.6310    4.9210   -3.9040 C.3    84  HIS84       0.1621
      3  C         75.7900    6.3730   -4.3560 C.2    84  HIS84       0.2264
      4  O         76.5100    6.6560   -5.3100 O.2    84  HIS84      -0.2867
      5  CB        76.9980    4.3710   -3.5030 C.3    84  HIS84       0.0745
      6  CG        77.8490    3.9750   -4.6730 C.ar   84  HIS84       0.0817
      7  ND1       78.5030    2.7630   -4.7430 N.ar   84  HIS84      -0.2268
      8  CD2       78.1560    4.6310   -5.8190 C.ar   84  HIS84       0.1154
      9  CE1       79.1750    2.6910   -5.8790 C.ar   84  HIS84       0.1986
     10  NE2       78.9820    3.8110   -6.5500 N.ar   84  HIS84      -0.2212
     11  N         77.0380   10.2600   -4.5100 N.3    86  ALA86      -0.1231
     12  CA        78.3840   10.8030   -4.3600 C.3    86  ALA86       0.1694
     13  C         78.4690   12.2210   -4.9440 C.2    86  ALA86       0.2592
     14  O         77.6740   12.5730   -5.8180 O.2    86  ALA86      -0.2718
     15  CB        79.3740    9.8810   -5.0670 C.3    86  ALA86       0.0304
     16  N         79.4200   13.0390   -4.4880 N.am   87  ASP87      -0.1974
     17  CA        80.4030   12.6970   -3.4610 C.3    87  ASP87       0.1709
     18  C         80.2150   13.5300   -2.1990 C.2    87  ASP87       0.2293
     19  O         80.3850   13.0280   -1.0940 O.2    87  ASP87      -0.2864
     20  CB        81.8140   12.9260   -3.9850 C.3    87  ASP87       0.1436
     21  CG        82.3980   11.6920   -4.6310 C.2    87  ASP87       0.3671
     22  OD1       82.0680   11.4220   -5.8080 O.co2  87  ASP87      -0.2456
     23  OD2       83.1810   10.9840   -3.9490 O.co2  87  ASP87      -0.2456
     24  N         85.5890   13.7210   -7.5870 N.3   104  GLY104     -0.1210
     25  CA        85.2760   12.5770   -6.7550 C.3   104  GLY104      0.1956
     26  C         85.4110   12.8600   -5.2690 C.2   104  GLY104      0.2612
     27  O         85.0640   13.9420   -4.7930 O.2   104  GLY104     -0.2717
     28  N         85.9270   11.8800   -4.5360 N.am  105  GLY105     -0.1956
     29  CA        86.0940   12.0110   -3.1000 C.3   105  GLY105      0.1869
     30  C         86.9970   13.1460   -2.6600 C.2   105  GLY105      0.2309
     31  O         87.1500   13.3940   -1.4650 O.2   105  GLY105     -0.2863
     32  N         79.7850    9.9260    0.2160 N.3   126  PHE126     -0.1227
     33  CA        80.2740    8.6600   -0.3230 C.3   126  PHE126      0.1736
     34  C         81.4190    8.1240    0.5350 C.2   126  PHE126      0.2595
     35  O         82.3050    8.8790    0.9310 O.2   126  PHE126     -0.2718
     36  CB        80.7690    8.8440   -1.7500 C.3   126  PHE126      0.0547
     37  CG        81.3310    7.5910   -2.3530 C.ar  126  PHE126     -0.0202
     38  CD1       80.4890    6.6150   -2.8830 C.ar  126  PHE126     -0.0042
     39  CD2       82.7030    7.3680   -2.3610 C.ar  126  PHE126     -0.0042
     40  CE1       81.0110    5.4370   -3.4120 C.ar  126  PHE126     -0.0003
     41  CE2       83.2320    6.1990   -2.8840 C.ar  126  PHE126     -0.0003
     42  CZ        82.3870    5.2320   -3.4110 C.ar  126  PHE126     -0.0000
     43  N         81.4140    6.8260    0.8210 N.am  127  ARG127     -0.1966
     44  CA        82.4730    6.2700    1.6460 C.3   127  ARG127      0.1729
     45  C         83.6980    5.7840    0.8850 C.2   127  ARG127      0.2616
     46  O         83.6790    4.7100    0.2880 O.2   127  ARG127     -0.2715
     47  CB        81.9350    5.1310    2.5110 C.3   127  ARG127      0.0348
     48  CG        82.9710    4.5890    3.4750 C.3   127  ARG127      0.0492
     49  CD        82.3790    3.6750    4.5230 C.3   127  ARG127      0.2205
     50  NE        83.3830    3.3060    5.5130 N.pl3 127  ARG127     -0.0865
     51  CZ        83.1540    2.5440    6.5780 C.cat 127  ARG127      0.5346
     52  NH1       81.9390    2.0540    6.8060 N.pl3 127  ARG127      0.1354
     53  NH2       84.1440    2.2770    7.4230 N.pl3 127  ARG127      0.1354
     54  N         84.7630    6.5810    0.9090 N.am  128  ASN128     -0.1958
     55  CA        86.0220    6.2150    0.2620 C.3   128  ASN128      0.1819
     56  C         86.8100    5.3120    1.2250 C.2   128  ASN128      0.2622
     57  O         86.4070    5.1240    2.3750 O.2   128  ASN128     -0.2715
     58  CB        86.8430    7.4690   -0.0720 C.3   128  ASN128      0.1195
     59  CG        86.2900    8.2340   -1.2610 C.2   128  ASN128      0.2630
     60  OD1       85.2530    8.8650   -1.1700 O.2   128  ASN128     -0.2716
     61  ND2       86.9870    8.1690   -2.3890 N.am  128  ASN128     -0.0877
     62  N         87.9290    4.7580    0.7660 N.am  129  THR129     -0.1937
     63  CA        88.7330    3.8740    1.6140 C.3   129  THR129      0.2028
     64  C         89.1830    4.5250    2.9220 C.2   129  THR129      0.2642
     65  O         89.3320    3.8530    3.9400 O.2   129  THR129     -0.2714
     66  CB        89.9910    3.3580    0.8730 C.3   129  THR129      0.1808
     67  OG1       90.8260    4.4620    0.5110 O.3   129  THR129     -0.2208
     68  CG2       89.5940    2.5940   -0.3780 C.3   129  THR129      0.0379
     69  N         89.3850    5.8360    2.8940 N.am  130  TRP130     -0.1973
     70  CA        89.8320    6.5700    4.0740 C.3   130  TRP130      0.1640
     71  C         88.6930    7.1060    4.9530 C.2   130  TRP130      0.2290
     72  O         88.9430    7.7570    5.9670 O.2   130  TRP130     -0.2864
     73  CB        90.7120    7.7300    3.6230 C.3   130  TRP130      0.0576
     74  CG        89.9960    8.6740    2.7060 C.ar  130  TRP130      0.0006
     75  CD1       89.0630    9.6160    3.0550 C.ar  130  TRP130      0.0946
     76  CD2       90.1310    8.7550    1.2810 C.ar  130  TRP130      0.0152
     77  NE1       88.6120   10.2730    1.9380 N.ar  130  TRP130     -0.2442
     78  CE2       89.2500    9.7680    0.8360 C.ar  130  TRP130      0.0810
     79  CE3       90.9110    8.0700    0.3340 C.ar  130  TRP130      0.0012
     80  CZ2       89.1300   10.1140   -0.5120 C.ar  130  TRP130      0.0191
     81  CZ3       90.7880    8.4150   -1.0110 C.ar  130  TRP130      0.0001
     82  CH2       89.9040    9.4280   -1.4180 C.ar  130  TRP130      0.0015
     83  N         79.8640   11.6230   -8.6140 N.3   211  GLY211     -0.1210
     84  CA        80.6010   10.4140   -8.9510 C.3   211  GLY211      0.1956
     85  C         81.6460   10.4990  -10.0430 C.2   211  GLY211      0.2611
     86  O         81.4010   11.0400  -11.1180 O.2   211  GLY211     -0.2717
     87  N         82.8200    9.9510   -9.7610 N.am  212  ASP212     -0.1973
     88  CA        83.9230    9.9300  -10.7190 C.3   212  ASP212      0.1709
     89  C         83.6950    8.7880  -11.7140 C.2   212  ASP212      0.2293
     90  O         83.2830    7.6900  -11.3290 O.2   212  ASP212     -0.2864
     91  CB        85.2470    9.7140   -9.9890 C.3   212  ASP212      0.1436
     92  CG        86.4350    9.7710  -10.9190 C.2   212  ASP212      0.3671
     93  OD1       86.7060   10.8560  -11.4740 O.co2 212  ASP212     -0.2456
     94  OD2       87.0990    8.7360  -11.1060 O.co2 212  ASP212     -0.2456
     95  N         85.6410    6.7230  -13.1940 N.3   214  SER214     -0.1202
     96  CA        86.3790    5.5000  -12.8870 C.3   214  SER214      0.2020
     97  C         85.5580    4.5110  -12.0580 C.2   214  SER214      0.2619
     98  O         85.8760    3.3230  -12.0190 O.2   214  SER214     -0.2717
     99  CB        87.6860    5.8270  -12.1530 C.3   214  SER214      0.2103
    100  OG        87.4410    6.1950  -10.8060 O.3   214  SER214     -0.2182
    101  N         84.5140    5.0060  -11.3940 N.am  215  GLY215     -0.1956
    102  CA        83.6610    4.1430  -10.5900 C.3   215  GLY215      0.1869
    103  C         82.6290    3.4340  -11.4580 C.2   215  GLY215      0.2309
    104  O         81.9320    2.5240  -11.0070 O.2   215  GLY215     -0.2863
    105  N         79.7160    4.2440  -12.4490 N.3   217  GLN217     -0.1245
    106  CA        78.3240    4.3510  -12.0050 C.3   217  GLN217      0.1566
    107  C         77.7290    5.7370  -12.2580 C.2   217  GLN217      0.2260
    108  O         78.0490    6.7000  -11.5610 O.2   217  GLN217     -0.2867
    109  CB        78.2380    4.0340  -10.5100 C.3   217  GLN217      0.0367
    110  CG        78.4690    2.5780  -10.1610 C.3   217  GLN217      0.0905
    111  CD        77.4930    1.6380  -10.8500 C.2   217  GLN217      0.2608
    112  OE1       76.2850    1.7130  -10.6270 O.2   217  GLN217     -0.2717
    113  NE2       78.0130    0.7440  -11.6820 N.am  217  GLN217     -0.0878
    114  N         75.8910    7.4580   -9.4020 N.3   220  ALA220     -0.1245
    115  CA        76.6650    8.0070   -8.2920 C.3   220  ALA220      0.1562
    116  C         76.6400    9.5260   -8.3990 C.2   220  ALA220      0.2260
    117  O         77.6230   10.1510   -8.7950 O.2   220  ALA220     -0.2867
    118  CB        78.1070    7.4960   -8.3470 C.3   220  ALA220      0.0290
@<TRIPOS>BOND
     1    95    96    1
     2    96    99    1
     3    96    97    1
     4   105   106    1
     5   107   106    1
     6   107   108    2
     7    99   100    1
     8    97    98    2
     9    97   101   am
    10   106   109    1
    11    89    90    2
    12    89    88    1
    13   113   111   am
    14    93    92   ar
    15   103   104    2
    16   103   102    1
    17   101   102    1
    18    86    85    2
    19    94    92   ar
    20    92    91    1
    21   111   112    2
    22   111   110    1
    23    88    91    1
    24    88    87    1
    25   109   110    1
    26    85    87   am
    27    85    84    1
    28   114   115    1
    29    84    83    1
    30   117   116    2
    31   116   115    1
    32   118   115    1
    33    24    25    1
    34    25    26    1
    35    10     9   ar
    36    10     8   ar
    37     9     7   ar
    38     8     6   ar
    39    14    13    2
    40    22    21   ar
    41     4     3    2
    42    26    27    2
    43    26    28   am
    44    15    12    1
    45    13    16   am
    46    13    12    1
    47     1     2    1
    48     7     6   ar
    49     6     5    1
    50    21    20    1
    51    21    23   ar
    52    28    29    1
    53    11    12    1
    54    16    17    1
    55     3     2    1
    56    20    17    1
    57     2     5    1
    58    17    18    1
    59    40    42   ar
    60    40    38   ar
    61    42    41   ar
    62    29    30    1
    63    41    39   ar
    64    38    37   ar
    65    30    31    2
    66    61    59   am
    67    39    37   ar
    68    37    36    1
    69    18    19    2
    70    36    33    1
    71    82    81   ar
    72    82    80   ar
    73    59    60    2
    74    59    58    1
    75    81    79   ar
    76    80    78   ar
    77    68    66    1
    78    33    32    1
    79    33    34    1
    80    58    55    1
    81    55    54    1
    82    55    56    1
    83    46    45    2
    84    79    76   ar
    85    67    66    1
    86    34    43   am
    87    34    35    2
    88    62    56   am
    89    62    63    1
    90    43    44    1
    91    78    76   ar
    92    78    77   ar
    93    66    63    1
    94    45    54   am
    95    45    44    1
    96    56    57    2
    97    76    74   ar
    98    63    64    1
    99    44    47    1
   100    77    75   ar
   101    47    48    1
   102    74    75   ar
   103    74    73    1
   104    69    64   am
   105    69    70    1
   106    64    65    2
   107    48    49    1
   108    73    70    1
   109    70    71    1
   110    49    50    1
   111    71    72    2
   112    50    51    2
   113    51    52    1
   114    51    53    1
