@<TRIPOS>MOLECULE
tmp/2zmmA00.pdb
 136 128 0 0 0
SMALL
GASTEIGER

@<TRIPOS>ATOM
      1  N         58.3920    5.8930    6.8430 N.3    23  ARG23      -0.1245
      2  CA        57.3860    5.1650    6.0760 C.3    23  ARG23       0.1563
      3  C         57.7320    3.6860    6.0100 C.2    23  ARG23       0.2260
      4  O         56.8570    2.8280    6.1200 O.2    23  ARG23      -0.2867
      5  CB        57.2690    5.7240    4.6590 C.3    23  ARG23       0.0307
      6  CG        56.4690    6.9950    4.5690 C.3    23  ARG23       0.0489
      7  CD        55.9850    7.2390    3.1550 C.3    23  ARG23       0.2205
      8  NE        55.0530    8.3580    3.1120 N.pl3  23  ARG23      -0.0865
      9  CZ        54.5670    8.8850    1.9950 C.cat  23  ARG23       0.5346
     10  NH1       54.9270    8.3940    0.8170 N.pl3  23  ARG23       0.1354
     11  NH2       53.7230    9.9070    2.0570 N.pl3  23  ARG23       0.1354
     12  N         38.5260    8.7340    1.6630 N.3    45  TYR45      -0.1241
     13  CA        39.6070    8.2710    0.7980 C.3    45  TYR45       0.1605
     14  C         39.7790    6.7580    0.8880 C.2    45  TYR45       0.2264
     15  O         39.8880    6.1950    1.9790 O.2    45  TYR45      -0.2867
     16  CB        40.9310    8.9540    1.1600 C.3    45  TYR45       0.0534
     17  CG        40.8990   10.4580    1.0600 C.ar   45  TYR45      -0.0201
     18  CD1       41.0020   11.0940   -0.1720 C.ar   45  TYR45      -0.0009
     19  CD2       40.7680   11.2470    2.1990 C.ar   45  TYR45      -0.0009
     20  CE1       40.9710   12.4750   -0.2690 C.ar   45  TYR45       0.0417
     21  CE2       40.7380   12.6300    2.1120 C.ar   45  TYR45       0.0417
     22  CZ        40.8380   13.2360    0.8740 C.ar   45  TYR45       0.1957
     23  OH        40.8100   14.6080    0.7820 O.3    45  TYR45      -0.2866
     24  N         42.2750    4.9770    0.3180 N.3    47  ASP47      -0.1225
     25  CA        43.5760    4.5500    0.8200 C.3    47  ASP47       0.1805
     26  C         43.9220    5.0980    2.2050 C.2    47  ASP47       0.2597
     27  O         45.0660    5.0050    2.6450 O.2    47  ASP47      -0.2718
     28  CB        44.6760    4.9320   -0.1740 C.3    47  ASP47       0.1424
     29  CG        44.5360    4.2140   -1.5020 C.2    47  ASP47       0.3668
     30  OD1       43.7220    3.2700   -1.5870 O.co2  47  ASP47      -0.2456
     31  OD2       45.2440    4.5910   -2.4580 O.co2  47  ASP47      -0.2456
     32  N         42.9440    5.6810    2.8870 N.am   48  VAL48      -0.1980
     33  CA        43.1680    6.1430    4.2520 C.3    48  VAL48       0.1595
     34  C         42.0870    5.5790    5.1570 C.2    48  VAL48       0.2287
     35  O         40.9350    6.0320    5.1250 O.2    48  VAL48      -0.2864
     36  CB        43.1900    7.6810    4.3550 C.3    48  VAL48       0.0276
     37  CG1       43.4230    8.1090    5.7960 C.3    48  VAL48       0.0022
     38  CG2       44.2620    8.2600    3.4510 C.3    48  VAL48       0.0022
     39  N         36.9320   19.3730    0.8010 N.3   119  LYS119     -0.1245
     40  CA        37.7460   18.5120    1.6500 C.3   119  LYS119      0.1561
     41  C         37.0260   18.0730    2.9200 C.2   119  LYS119      0.2260
     42  O         37.5210   17.2210    3.6560 O.2   119  LYS119     -0.2867
     43  CB        39.0300   19.2470    2.0490 C.3   119  LYS119      0.0271
     44  CG        39.9250   19.6300    0.8840 C.3   119  LYS119      0.0035
     45  CD        40.4780   18.3890    0.1970 C.3   119  LYS119      0.0206
     46  CE        41.6830   18.7270   -0.6640 C.3   119  LYS119      0.1093
     47  NZ        42.8370   19.1780    0.1720 N.3   119  LYS119     -0.1314
     48  N         47.1790   22.2010    2.4860 N.3   180  ASP180     -0.1225
     49  CA        47.2120   20.7550    2.3370 C.3   180  ASP180      0.1805
     50  C         48.5720   20.3330    1.7830 C.2   180  ASP180      0.2597
     51  O         49.1210   20.9900    0.8980 O.2   180  ASP180     -0.2718
     52  CB        46.0880   20.2910    1.4110 C.3   180  ASP180      0.1424
     53  CG        46.1580   20.9430    0.0430 C.2   180  ASP180      0.3668
     54  OD1       45.8410   22.1460   -0.0680 O.co2 180  ASP180     -0.2456
     55  OD2       46.5300   20.2470   -0.9260 O.co2 180  ASP180     -0.2456
     56  N         49.1160   19.2430    2.3160 N.am  181  PHE181     -0.1976
     57  CA        50.4310   18.7580    1.9090 C.3   181  PHE181      0.1639
     58  C         51.5080   19.8010    2.1670 C.2   181  PHE181      0.2290
     59  O         52.6190   19.7050    1.6390 O.2   181  PHE181     -0.2864
     60  CB        50.4300   18.3490    0.4310 C.3   181  PHE181      0.0560
     61  CG        49.5340   17.1810    0.1280 C.ar  181  PHE181     -0.0200
     62  CD1       49.9840   15.8830    0.3030 C.ar  181  PHE181     -0.0042
     63  CD2       48.2410   17.3830   -0.3270 C.ar  181  PHE181     -0.0042
     64  CE1       49.1590   14.8070    0.0280 C.ar  181  PHE181     -0.0003
     65  CE2       47.4130   16.3120   -0.6040 C.ar  181  PHE181     -0.0003
     66  CZ        47.8720   15.0240   -0.4270 C.ar  181  PHE181     -0.0000
     67  N         41.8650   16.9120    9.6670 N.3   214  CYS214     -0.1221
     68  CA        42.0190   17.7360    8.4820 C.3   214  CYS214      0.1808
     69  C         41.0950   17.1250    7.4320 C.2   214  CYS214      0.2602
     70  O         39.9270   16.8700    7.7180 O.2   214  CYS214     -0.2717
     71  CB        43.4750   17.7610    8.0230 C.3   214  CYS214      0.0970
     72  SG        44.3430   16.2040    8.2590 S.3   214  CYS214     -0.0800
     73  N         41.5940   16.8700    6.2280 N.am  215  SER215     -0.1938
     74  CA        40.7640   16.1710    5.2460 C.3   215  SER215      0.2055
     75  C         40.8590   14.6540    5.4170 C.2   215  SER215      0.2642
     76  O         39.8460   13.9740    5.5870 O.2   215  SER215     -0.2714
     77  CB        41.1210   16.5670    3.8130 C.3   215  SER215      0.2130
     78  OG        40.1270   16.0980    2.9100 O.3   215  SER215     -0.2179
     79  N         42.0810   14.1330    5.3830 N.am  216  ALA216     -0.1977
     80  CA        42.3120   12.6980    5.5300 C.3   216  ALA216      0.1597
     81  C         42.5480   12.3100    6.9890 C.2   216  ALA216      0.2287
     82  O         42.3990   11.1450    7.3680 O.2   216  ALA216     -0.2864
     83  CB        43.4870   12.2570    4.6580 C.3   216  ALA216      0.0319
     84  N         45.4840   12.6190    8.6810 N.3   218  ILE218     -0.1231
     85  CA        46.7940   12.0140    8.9040 C.3   218  ILE218      0.1692
     86  C         47.9710   12.9640    8.6680 C.2   218  ILE218      0.2593
     87  O         48.9660   12.9140    9.3910 O.2   218  ILE218     -0.2718
     88  CB        46.9890   10.7330    8.0570 C.3   218  ILE218      0.0266
     89  CG1       46.9140   11.0530    6.5640 C.3   218  ILE218      0.0019
     90  CG2       45.9490    9.6810    8.4180 C.3   218  ILE218      0.0020
     91  CD1       47.1600    9.8440    5.6840 C.3   218  ILE218      0.0001
     92  N         47.8640   13.8220    7.6570 N.am  219  GLY219     -0.1942
     93  CA        48.9590   14.7140    7.3150 C.3   219  GLY219      0.2014
     94  C         49.1260   15.8620    8.2960 C.2   219  GLY219      0.2638
     95  O         50.0090   15.8430    9.1580 O.2   219  GLY219     -0.2714
     96  N         48.2810   16.8760    8.1520 N.am  220  ARG220     -0.1977
     97  CA        48.2920   18.0130    9.0610 C.3   220  ARG220      0.1597
     98  C         47.9380   17.5880   10.4910 C.2   220  ARG220      0.2287
     99  O         48.5490   18.0520   11.4490 O.2   220  ARG220     -0.2864
    100  CB        47.3460   19.1080    8.5490 C.3   220  ARG220      0.0334
    101  CG        47.8790   19.8210    7.3030 C.3   220  ARG220      0.0492
    102  CD        46.8300   20.6950    6.6290 C.3   220  ARG220      0.2205
    103  NE        45.8240   19.9130    5.9100 N.pl3 220  ARG220     -0.0865
    104  CZ        44.8820   20.4430    5.1340 C.cat 220  ARG220      0.5346
    105  NH1       44.8220   21.7570    4.9740 N.pl3 220  ARG220      0.1354
    106  NH2       44.0000   19.6630    4.5190 N.pl3 220  ARG220      0.1354
    107  N         47.5560    4.9960   10.3780 N.3   257  MET257     -0.1230
    108  CA        48.4970    5.0170    9.2580 C.3   257  MET257      0.1702
    109  C         48.8250    6.4270    8.7640 C.2   257  MET257      0.2592
    110  O         48.0130    7.3500    8.8770 O.2   257  MET257     -0.2718
    111  CB        47.9470    4.1980    8.0820 C.3   257  MET257      0.0401
    112  CG        46.6540    4.7590    7.4870 C.3   257  MET257      0.0596
    113  SD        46.0750    3.9310    5.9850 S.3   257  MET257     -0.1393
    114  CE        45.7840    2.2670    6.5920 C.3   257  MET257      0.0692
    115  N         50.0280    6.5770    8.2140 N.am  258  GLY258     -0.1957
    116  CA        50.3960    7.7500    7.4400 C.3   258  GLY258      0.1869
    117  C         50.5450    9.0810    8.1570 C.2   258  GLY258      0.2309
    118  O         50.6260   10.1210    7.5030 O.2   258  GLY258     -0.2863
    119  N         52.5670   13.5700    6.3140 N.3   261  GLN261     -0.1245
    120  CA        52.4370   13.1530    4.9240 C.3   261  GLN261      0.1566
    121  C         53.6340   13.5030    4.0420 C.2   261  GLN261      0.2260
    122  O         53.8480   12.8710    3.0120 O.2   261  GLN261     -0.2867
    123  CB        51.1480   13.7350    4.3290 C.3   261  GLN261      0.0367
    124  CG        50.9790   13.5080    2.8380 C.3   261  GLN261      0.0905
    125  CD        50.9130   12.0390    2.4700 C.2   261  GLN261      0.2608
    126  OE1       50.4810   11.2060    3.2640 O.2   261  GLN261     -0.2717
    127  NE2       51.3410   11.7150    1.2520 N.am  261  GLN261     -0.0878
    128  N         56.7900   18.4690    6.3690 N.3   265  GLN265     -0.1245
    129  CA        55.9430   18.5020    7.5560 C.3   265  GLN265      0.1566
    130  C         56.7010   17.9080    8.7380 C.2   265  GLN265      0.2260
    131  O         56.5850   18.3820    9.8700 O.2   265  GLN265     -0.2867
    132  CB        54.6340   17.7450    7.3220 C.3   265  GLN265      0.0367
    133  CG        53.6630   18.4530    6.3970 C.3   265  GLN265      0.0905
    134  CD        52.3830   17.6670    6.1910 C.2   265  GLN265      0.2608
    135  OE1       52.3380   16.4600    6.4280 O.2   265  GLN265     -0.2717
    136  NE2       51.3340   18.3490    5.7520 N.am  265  GLN265     -0.0878
@<TRIPOS>BOND
     1    31    29   ar
     2    30    29   ar
     3    29    28    1
     4    55    53   ar
     5    46    47    1
     6    46    45    1
     7    65    66   ar
     8    65    63   ar
     9    66    64   ar
    10    63    61   ar
    11    20    18   ar
    12    20    22   ar
    13    28    25    1
    14    18    17   ar
    15    54    53   ar
    16    64    62   ar
    17    53    52    1
    18    61    62   ar
    19    61    60    1
    20    45    44    1
    21    24    25    1
    22    60    57    1
    23    23    22    1
    24    13    14    1
    25    13    16    1
    26    13    12    1
    27    39    40    1
    28    10     9    1
    29    25    26    1
    30    22    21   ar
    31    44    43    1
    32    14    15    2
    33    51    50    2
    34    17    16    1
    35    17    19   ar
    36   127   125   am
    37    52    49    1
    38    59    58    2
    39    40    43    1
    40    40    41    1
    41    50    56   am
    42    50    49    1
    43    57    58    1
    44    57    56    1
    45     9    11    1
    46     9     8    2
    47    21    19   ar
    48    26    27    2
    49    26    32   am
    50    49    48    1
    51   125   124    1
    52   125   126    2
    53   124   123    1
    54    32    33    1
    55    78    77    1
    56    41    42    2
    57   122   121    2
    58     8     7    1
    59     7     6    1
    60    38    36    1
    61    77    74    1
    62   121   120    1
    63    33    36    1
    64    33    34    1
    65   123   120    1
    66    36    37    1
    67   106   104    1
    68     6     5    1
    69    83    80    1
    70     5     2    1
    71   120   119    1
    72   105   104    1
    73    35    34    2
    74   104   103    2
    75    74    75    1
    76    74    73    1
    77    79    75   am
    78    79    80    1
    79    75    76    2
    80    80    81    1
    81    91    89    1
    82   136   134   am
    83   103   102    1
    84   113   114    1
    85   113   112    1
    86     3     2    1
    87     3     4    2
    88     2     1    1
    89   134   133    1
    90   134   135    2
    91    73    69   am
    92   128   129    1
    93   133   132    1
    94    89    88    1
    95   102   101    1
    96    81    82    2
    97   101   100    1
    98    93    92    1
    99    93    94    1
   100   132   129    1
   101    69    70    2
   102    69    68    1
   103   116   117    1
   104   116   115    1
   105   112   111    1
   106   118   117    2
   107   129   130    1
   108    92    86   am
   109    71    72    1
   110    71    68    1
   111    88    90    1
   112    88    85    1
   113   111   108    1
   114    96    94   am
   115    96    97    1
   116   115   109   am
   117    94    95    2
   118    68    67    1
   119   100    97    1
   120    86    85    1
   121    86    87    2
   122    84    85    1
   123   130   131    2
   124   109   110    2
   125   109   108    1
   126    97    98    1
   127   108   107    1
   128    98    99    2
