@<TRIPOS>MOLECULE
tmp/2zmnB02.pdb
 104 98 0 0 0
SMALL
GASTEIGER

@<TRIPOS>ATOM
      1  N        105.0960    2.3870   53.0880 N.3    84  HIS84      -0.1241
      2  CA       105.1800    3.1180   51.8220 C.3    84  HIS84       0.1621
      3  C        105.9810    4.4130   51.9250 C.2    84  HIS84       0.2264
      4  O        105.6970    5.2750   52.7540 O.2    84  HIS84      -0.2867
      5  CB       103.7880    3.4910   51.3350 C.3    84  HIS84       0.0745
      6  CG       102.9850    4.2400   52.3500 C.ar   84  HIS84       0.0817
      7  ND1      102.0660    3.6270   53.1750 N.ar   84  HIS84      -0.2268
      8  CD2      102.9900    5.5460   52.7060 C.ar   84  HIS84       0.1154
      9  CE1      101.5370    4.5210   53.9950 C.ar   84  HIS84       0.1986
     10  NE2      102.0800    5.6940   53.7310 N.ar   84  HIS84      -0.2212
     11  N        107.5500    8.1890   50.6550 N.3    86  ALA86      -0.1231
     12  CA       106.8820    9.3990   50.1620 C.3    86  ALA86       0.1694
     13  C        107.8530   10.5870   50.2530 C.2    86  ALA86       0.2592
     14  O        108.7930   10.5440   51.0330 O.2    86  ALA86      -0.2718
     15  CB       105.6560    9.6680   50.9860 C.3    86  ALA86       0.0304
     16  N        107.6710   11.6300   49.4570 N.am   87  ASP87      -0.1974
     17  CA       106.6110   11.7160   48.4880 C.3    87  ASP87       0.1709
     18  C        107.1570   11.7980   47.0680 C.2    87  ASP87       0.2293
     19  O        106.4420   11.5320   46.0970 O.2    87  ASP87      -0.2864
     20  CB       105.7370   12.9420   48.7720 C.3    87  ASP87       0.1436
     21  CG       104.4760   12.5880   49.5610 C.2    87  ASP87       0.3671
     22  OD1      104.4140   12.8580   50.7870 O.co2  87  ASP87      -0.2456
     23  OD2      103.5320   12.0240   48.9580 O.co2  87  ASP87      -0.2456
     24  N        104.0640   17.0370   51.5750 N.3   104  GLY104     -0.1210
     25  CA       103.4270   15.7830   51.2090 C.3   104  GLY104      0.1956
     26  C        103.2970   15.6000   49.7100 C.2   104  GLY104      0.2612
     27  O        104.2280   15.8590   48.9570 O.2   104  GLY104     -0.2717
     28  N        102.1280   15.1490   49.2800 N.am  105  GLY105     -0.1956
     29  CA       101.8770   14.9220   47.8700 C.3   105  GLY105      0.1869
     30  C        101.9330   16.1770   47.0130 C.2   105  GLY105      0.2309
     31  O        101.7480   16.1160   45.8050 O.2   105  GLY105     -0.2863
     32  N        104.7650    8.3070   46.0360 N.3   126  PHE126     -0.1227
     33  CA       103.5920    7.9900   46.8650 C.3   126  PHE126      0.1736
     34  C        102.3020    8.1480   46.0670 C.2   126  PHE126      0.2595
     35  O        102.1550    9.0970   45.3080 O.2   126  PHE126     -0.2718
     36  CB       103.5050    8.9010   48.0900 C.3   126  PHE126      0.0547
     37  CG       102.3440    8.5910   48.9860 C.ar  126  PHE126     -0.0202
     38  CD1      102.3880    7.5120   49.8710 C.ar  126  PHE126     -0.0042
     39  CD2      101.1810    9.3660   48.9270 C.ar  126  PHE126     -0.0042
     40  CE1      101.3010    7.2120   50.6760 C.ar  126  PHE126     -0.0003
     41  CE2      100.0760    9.0710   49.7360 C.ar  126  PHE126     -0.0003
     42  CZ       100.1440    7.9890   50.6120 C.ar  126  PHE126     -0.0000
     43  N        101.3610    7.2220   46.2530 N.am  127  ARG127     -0.1966
     44  CA       100.1170    7.2940   45.5070 C.3   127  ARG127      0.1729
     45  C         98.9840    8.0180   46.2060 C.2   127  ARG127      0.2616
     46  O         98.3580    7.4640   47.1050 O.2   127  ARG127     -0.2715
     47  CB        99.6400    5.9040   45.1140 C.3   127  ARG127      0.0348
     48  CG        98.4110    5.9660   44.2520 C.3   127  ARG127      0.0492
     49  CD        98.0780    4.6290   43.6370 C.3   127  ARG127      0.2205
     50  NE        96.9940    4.7630   42.6730 N.pl3 127  ARG127     -0.0865
     51  CZ        96.4970    3.7560   41.9590 C.cat 127  ARG127      0.5346
     52  NH1       96.9820    2.5200   42.0950 N.pl3 127  ARG127      0.1354
     53  NH2       95.5090    3.9920   41.0990 N.pl3 127  ARG127      0.1354
     54  N         98.7320    9.2580   45.7810 N.am  128  ASN128     -0.1958
     55  CA        97.6550   10.0450   46.3340 C.3   128  ASN128      0.1819
     56  C         96.3590    9.6570   45.6280 C.2   128  ASN128      0.2621
     57  O         96.3710    8.8310   44.7160 O.2   128  ASN128     -0.2715
     58  CB        97.9350   11.5290   46.1670 C.3   128  ASN128      0.1195
     59  CG        99.0010   12.0110   47.1050 C.2   128  ASN128      0.2630
     60  OD1      100.1500   11.6450   46.9770 O.2   128  ASN128     -0.2716
     61  ND2       98.6180   12.8220   48.0820 N.am  128  ASN128     -0.0877
     62  N         95.2370   10.2380   46.0420 N.am  129  THR129     -0.1951
     63  CA        93.9510    9.8910   45.4390 C.3   129  THR129      0.1897
     64  C         93.9190   10.1780   43.9390 C.2   129  THR129      0.2313
     65  O         93.2060    9.5150   43.1990 O.2   129  THR129     -0.2863
     66  CB        92.7760   10.6450   46.1400 C.3   129  THR129      0.1794
     67  OG1       92.8730   12.0440   45.8750 O.3   129  THR129     -0.2208
     68  CG2       92.8180   10.4250   47.6310 C.3   129  THR129      0.0378
     69  N        106.8940   12.1410   53.8480 N.3   211  GLY211     -0.1210
     70  CA       105.5860   11.8910   54.4450 C.3   211  GLY211      0.1956
     71  C        105.0130   12.9660   55.3390 C.2   211  GLY211      0.2611
     72  O        105.7050   13.5130   56.1980 O.2   211  GLY211     -0.2717
     73  N        103.7340   13.2700   55.1470 N.am  212  ASP212     -0.1973
     74  CA       103.0430   14.2850   55.9300 C.3   212  ASP212      0.1709
     75  C        102.6050   13.6750   57.2460 C.2   212  ASP212      0.2293
     76  O        102.1790   12.5170   57.2920 O.2   212  ASP212     -0.2864
     77  CB       101.8160   14.7820   55.1790 C.3   212  ASP212      0.1436
     78  CG       101.1890   15.9950   55.8330 C.2   212  ASP212      0.3671
     79  OD1      101.8160   17.0830   55.7900 O.co2 212  ASP212     -0.2456
     80  OD2      100.0760   15.8680   56.3970 O.co2 212  ASP212     -0.2456
     81  N         99.9530   14.0820   59.0480 N.3   214  SER214     -0.1202
     82  CA        98.5680   13.6610   59.0770 C.3   214  SER214      0.2020
     83  C         98.4100   12.2100   58.6710 C.2   214  SER214      0.2619
     84  O         97.4290   11.5640   59.0190 O.2   214  SER214     -0.2717
     85  CB        97.7230   14.5430   58.1690 C.3   214  SER214      0.2103
     86  OG        98.0170   14.2790   56.8170 O.3   214  SER214     -0.2182
     87  N         99.3770   11.6960   57.9330 N.am  215  GLY215     -0.1956
     88  CA        99.3190   10.3060   57.5190 C.3   215  GLY215      0.1869
     89  C         99.6640    9.3910   58.6740 C.2   215  GLY215      0.2309
     90  O         99.4530    8.1840   58.6180 O.2   215  GLY215     -0.2863
     91  N        102.5200    8.2610   59.8990 N.3   217  GLN217     -0.1245
     92  CA       103.4490    7.1860   59.5310 C.3   217  GLN217      0.1566
     93  C        104.8550    7.7450   59.3420 C.2   217  GLN217      0.2260
     94  O        105.1790    8.2890   58.2820 O.2   217  GLN217     -0.2867
     95  CB       102.9930    6.5210   58.2280 C.3   217  GLN217      0.0367
     96  CG       101.7160    5.7180   58.3790 C.3   217  GLN217      0.0905
     97  CD       101.9470    4.4250   59.1170 C.2   217  GLN217      0.2608
     98  OE1      102.9530    4.2660   59.8140 O.2   217  GLN217     -0.2717
     99  NE2      101.0160    3.4910   58.9720 N.am  217  GLN217     -0.0878
    100  N        107.0300    6.8550   56.4080 N.3   220  ALA220     -0.1245
    101  CA       106.6850    7.4390   55.1260 C.3   220  ALA220      0.1562
    102  C        107.7370    8.4700   54.7780 C.2   220  ALA220      0.2260
    103  O        107.5000    9.6730   54.8480 O.2   220  ALA220     -0.2867
    104  CB       105.3200    8.0930   55.2190 C.3   220  ALA220      0.0290
@<TRIPOS>BOND
     1    53    51    1
     2    51    52    1
     3    51    50    2
     4    50    49    1
     5    65    64    2
     6    49    48    1
     7    64    63    1
     8    48    47    1
     9    57    56    2
    10    47    44    1
    11    35    34    2
    12    63    62    1
    13    63    66    1
    14    44    45    1
    15    44    43    1
    16    56    62   am
    17    56    55    1
    18    54    45   am
    19    54    55    1
    20    31    30    2
    21    67    66    1
    22    32    33    1
    23    34    43   am
    24    34    33    1
    25    19    18    2
    26    66    68    1
    27    58    55    1
    28    58    59    1
    29    45    46    2
    30    33    36    1
    31    60    59    2
    32    30    29    1
    33    18    17    1
    34    59    61   am
    35    29    28    1
    36    36    37    1
    37    17    20    1
    38    17    16    1
    39    20    21    1
    40    39    37   ar
    41    39    41   ar
    42    27    26    2
    43    23    21   ar
    44    37    38   ar
    45    28    26   am
    46    16    13   am
    47    21    22   ar
    48    26    25    1
    49    41    42   ar
    50    38    40   ar
    51    12    13    1
    52    12    11    1
    53    12    15    1
    54    13    14    2
    55    42    40   ar
    56    25    24    1
    57     5     2    1
    58     5     6    1
    59     2     3    1
    60     2     1    1
    61     3     4    2
    62     6     8   ar
    63     6     7   ar
    64     8    10   ar
    65     7     9   ar
    66    10     9   ar
    67    69    70    1
    68    70    71    1
    69   102   103    2
    70   102   101    1
    71   101   104    1
    72   101   100    1
    73    73    71   am
    74    73    74    1
    75    77    78    1
    76    77    74    1
    77    71    72    2
    78    79    78   ar
    79    78    80   ar
    80    74    75    1
    81    86    85    1
    82    75    76    2
    83    88    87    1
    84    88    89    1
    85    87    83   am
    86    85    82    1
    87    95    96    1
    88    95    92    1
    89    94    93    2
    90    96    97    1
    91    90    89    2
    92    83    84    2
    93    83    82    1
    94    99    97   am
    95    81    82    1
    96    97    98    2
    97    93    92    1
    98    92    91    1
