@<TRIPOS>MOLECULE
tmp/2zn7A00.pdb
 136 128 0 0 0
SMALL
GASTEIGER

@<TRIPOS>ATOM
      1  N         58.4810    6.1530    7.3430 N.3    23  ARG23      -0.1245
      2  CA        57.4840    5.4420    6.5460 C.3    23  ARG23       0.1563
      3  C         57.7930    3.9520    6.4960 C.2    23  ARG23       0.2260
      4  O         56.9030    3.1150    6.6600 O.2    23  ARG23      -0.2867
      5  CB        57.4350    5.9820    5.1130 C.3    23  ARG23       0.0307
      6  CG        56.7580    7.3140    4.9760 C.3    23  ARG23       0.0489
      7  CD        56.1850    7.5070    3.5750 C.3    23  ARG23       0.2205
      8  NE        55.2320    8.6080    3.5820 N.pl3  23  ARG23      -0.0865
      9  CZ        54.7530    9.2040    2.4960 C.cat  23  ARG23       0.5346
     10  NH1       55.1430    8.8050    1.2880 N.pl3  23  ARG23       0.1354
     11  NH2       53.8880   10.2080    2.6200 N.pl3  23  ARG23       0.1354
     12  N         38.6950    9.2170    1.9340 N.3    45  TYR45      -0.1241
     13  CA        39.7790    8.7290    1.0740 C.3    45  TYR45       0.1605
     14  C         39.9270    7.2040    1.1430 C.2    45  TYR45       0.2264
     15  O         40.0540    6.6250    2.2280 O.2    45  TYR45      -0.2867
     16  CB        41.1170    9.3850    1.4530 C.3    45  TYR45       0.0534
     17  CG        41.1000   10.8950    1.3650 C.ar   45  TYR45      -0.0201
     18  CD1       41.0770   11.5370    0.1220 C.ar   45  TYR45      -0.0009
     19  CD2       41.1100   11.6860    2.5180 C.ar   45  TYR45      -0.0009
     20  CE1       41.0550   12.9210    0.0290 C.ar   45  TYR45       0.0417
     21  CE2       41.0820   13.0750    2.4370 C.ar   45  TYR45       0.0417
     22  CZ        41.0580   13.6840    1.1910 C.ar   45  TYR45       0.1957
     23  OH        41.0340   15.0480    1.0930 O.3    45  TYR45      -0.2866
     24  N         42.3850    5.3030    0.5980 N.3    47  ASP47      -0.1225
     25  CA        43.6480    4.8210    1.1340 C.3    47  ASP47       0.1805
     26  C         44.0080    5.3630    2.5220 C.2    47  ASP47       0.2597
     27  O         45.1380    5.2060    2.9650 O.2    47  ASP47      -0.2718
     28  CB        44.7790    5.1420    0.1540 C.3    47  ASP47       0.1424
     29  CG        44.6660    4.3520   -1.1430 C.2    47  ASP47       0.3668
     30  OD1       43.9160    3.3500   -1.1710 O.co2  47  ASP47      -0.2456
     31  OD2       45.3270    4.7330   -2.1280 O.co2  47  ASP47      -0.2456
     32  N         43.0650    6.0170    3.1900 N.am   48  VAL48      -0.1980
     33  CA        43.2890    6.4840    4.5580 C.3    48  VAL48       0.1595
     34  C         42.1970    5.9450    5.4780 C.2    48  VAL48       0.2287
     35  O         41.0430    6.3980    5.4350 O.2    48  VAL48      -0.2864
     36  CB        43.3580    8.0270    4.6510 C.3    48  VAL48       0.0276
     37  CG1       43.6550    8.4520    6.0900 C.3    48  VAL48       0.0022
     38  CG2       44.4270    8.5710    3.7020 C.3    48  VAL48       0.0022
     39  N         37.1860   19.7640    1.1180 N.3   119  LYS119     -0.1245
     40  CA        38.0100   18.9290    1.9830 C.3   119  LYS119      0.1561
     41  C         37.2860   18.4870    3.2520 C.2   119  LYS119      0.2260
     42  O         37.7750   17.6340    3.9810 O.2   119  LYS119     -0.2867
     43  CB        39.2580   19.7210    2.3950 C.3   119  LYS119      0.0271
     44  CG        40.1720   20.1330    1.2390 C.3   119  LYS119      0.0035
     45  CD        40.6760   18.9220    0.4560 C.3   119  LYS119      0.0206
     46  CE        42.0030   19.2290   -0.2370 C.3   119  LYS119      0.1093
     47  NZ        43.0920   19.5870    0.7390 N.3   119  LYS119     -0.1314
     48  N         47.4400   22.5520    3.0080 N.3   180  ASP180     -0.1225
     49  CA        47.4860   21.1130    2.8050 C.3   180  ASP180      0.1805
     50  C         48.8640   20.7100    2.2690 C.2   180  ASP180      0.2597
     51  O         49.4320   21.4030    1.4240 O.2   180  ASP180     -0.2718
     52  CB        46.3840   20.6740    1.8330 C.3   180  ASP180      0.1424
     53  CG        46.4680   21.4040    0.4970 C.2   180  ASP180      0.3668
     54  OD1       46.8370   20.7700   -0.5170 O.co2 180  ASP180     -0.2456
     55  OD2       46.1970   22.6240    0.4740 O.co2 180  ASP180     -0.2456
     56  N         49.3780   19.5830    2.7550 N.am  181  PHE181     -0.1976
     57  CA        50.7310   19.1140    2.4400 C.3   181  PHE181      0.1639
     58  C         51.7770   20.1810    2.7370 C.2   181  PHE181      0.2290
     59  O         52.9010   20.1160    2.2340 O.2   181  PHE181     -0.2864
     60  CB        50.8350   18.6520    0.9740 C.3   181  PHE181      0.0560
     61  CG        49.9540   17.4850    0.6540 C.ar  181  PHE181     -0.0200
     62  CD1       50.4020   16.1900    0.8460 C.ar  181  PHE181     -0.0042
     63  CD2       48.6610   17.6810    0.2010 C.ar  181  PHE181     -0.0042
     64  CE1       49.5820   15.1120    0.5790 C.ar  181  PHE181     -0.0003
     65  CE2       47.8430   16.6100   -0.0680 C.ar  181  PHE181     -0.0003
     66  CZ        48.3050   15.3230    0.1210 C.ar  181  PHE181     -0.0000
     67  N         41.9840   17.2320   10.0390 N.3   214  CYS214     -0.1221
     68  CA        42.2150   18.0780    8.8910 C.3   214  CYS214      0.1808
     69  C         41.3060   17.4940    7.8140 C.2   214  CYS214      0.2602
     70  O         40.1370   17.2410    8.0850 O.2   214  CYS214     -0.2717
     71  CB        43.6920   18.0870    8.4910 C.3   214  CYS214      0.0970
     72  SG        44.5740   16.5110    8.6570 S.3   214  CYS214     -0.0800
     73  N         41.8100   17.2570    6.6110 N.am  215  SER215     -0.1938
     74  CA        40.9760   16.5890    5.6060 C.3   215  SER215      0.2055
     75  C         41.0280   15.0640    5.7510 C.2   215  SER215      0.2642
     76  O         39.9960   14.4040    5.8750 O.2   215  SER215     -0.2714
     77  CB        41.3980   16.9850    4.1870 C.3   215  SER215      0.2130
     78  OG        40.4520   16.4840    3.2510 O.3   215  SER215     -0.2179
     79  N         42.2380   14.5130    5.7470 N.am  216  ALA216     -0.1977
     80  CA        42.4230   13.0700    5.9100 C.3   216  ALA216      0.1597
     81  C         42.6550   12.6520    7.3760 C.2   216  ALA216      0.2287
     82  O         42.5270   11.4750    7.7370 O.2   216  ALA216     -0.2864
     83  CB        43.5720   12.5960    5.0390 C.3   216  ALA216      0.0319
     84  N         45.5750   12.9270    9.0670 N.3   218  ILE218     -0.1231
     85  CA        46.8920   12.3180    9.2960 C.3   218  ILE218      0.1692
     86  C         48.0790   13.2610    9.1540 C.2   218  ILE218      0.2593
     87  O         49.0410   13.1500    9.9120 O.2   218  ILE218     -0.2718
     88  CB        47.1290   11.0400    8.4130 C.3   218  ILE218      0.0266
     89  CG1       47.0780   11.3790    6.9270 C.3   218  ILE218      0.0019
     90  CG2       46.0840    9.9720    8.7100 C.3   218  ILE218      0.0020
     91  CD1       47.3900   10.1640    6.0350 C.3   218  ILE218      0.0001
     92  N         48.0250   14.1770    8.1860 N.am  219  GLY219     -0.1942
     93  CA        49.1800   15.0100    7.8700 C.3   219  GLY219      0.2014
     94  C         49.3530   16.1750    8.8300 C.2   219  GLY219      0.2638
     95  O         50.1940   16.1440    9.7330 O.2   219  GLY219     -0.2714
     96  N         48.5630   17.2190    8.6170 N.am  220  ARG220     -0.1977
     97  CA        48.5110   18.3380    9.5410 C.3   220  ARG220      0.1597
     98  C         48.1190   17.8820   10.9500 C.2   220  ARG220      0.2287
     99  O         48.6970   18.3320   11.9390 O.2   220  ARG220     -0.2864
    100  CB        47.5340   19.3970    9.0210 C.3   220  ARG220      0.0334
    101  CG        48.0760   20.1380    7.7890 C.3   220  ARG220      0.0492
    102  CD        47.0250   20.9990    7.1310 C.3   220  ARG220      0.2205
    103  NE        46.0910   20.2210    6.3120 N.pl3 220  ARG220     -0.0865
    104  CZ        45.1560   20.7680    5.5380 C.cat 220  ARG220      0.5346
    105  NH1       45.0360   22.0970    5.4720 N.pl3 220  ARG220      0.1354
    106  NH2       44.3420   19.9930    4.8290 N.pl3 220  ARG220      0.1354
    107  N         47.6430    5.2090   10.7170 N.3   257  MET257     -0.1230
    108  CA        48.5870    5.2510    9.6010 C.3   257  MET257      0.1702
    109  C         48.9260    6.6700    9.1380 C.2   257  MET257      0.2592
    110  O         48.1100    7.5860    9.2500 O.2   257  MET257     -0.2718
    111  CB        48.0190    4.4700    8.4070 C.3   257  MET257      0.0401
    112  CG        46.7290    5.0690    7.8240 C.3   257  MET257      0.0596
    113  SD        46.1900    4.2980    6.2770 S.3   257  MET257     -0.1393
    114  CE        45.7740    2.6590    6.8620 C.3   257  MET257      0.0692
    115  N         50.1430    6.8420    8.6280 N.am  258  GLY258     -0.1957
    116  CA        50.4730    7.9910    7.7980 C.3   258  GLY258      0.1869
    117  C         50.6940    9.3160    8.5000 C.2   258  GLY258      0.2309
    118  O         50.8330   10.3460    7.8370 O.2   258  GLY258     -0.2863
    119  N         52.7600   13.8280    6.7970 N.3   261  GLN261     -0.1245
    120  CA        52.6120   13.4540    5.3860 C.3   261  GLN261      0.1566
    121  C         53.8490   13.7580    4.5460 C.2   261  GLN261      0.2260
    122  O         54.0730   13.1170    3.5180 O.2   261  GLN261     -0.2867
    123  CB        51.4450   14.2430    4.7850 C.3   261  GLN261      0.0367
    124  CG        50.4100   13.4860    3.9510 C.3   261  GLN261      0.0905
    125  CD        50.9250   12.2630    3.2140 C.2   261  GLN261      0.2608
    126  OE1       50.7100   11.1100    3.6160 O.2   261  GLN261     -0.2717
    127  NE2       51.6490   12.5150    2.1500 N.am  261  GLN261     -0.0878
    128  N         57.0060   18.7340    6.9990 N.3   265  GLN265     -0.1245
    129  CA        56.1560   18.6860    8.1950 C.3   265  GLN265      0.1566
    130  C         56.9180   18.0650    9.3660 C.2   265  GLN265      0.2260
    131  O         56.8310   18.5470   10.4960 O.2   265  GLN265     -0.2867
    132  CB        54.8500   17.9210    7.9270 C.3   265  GLN265      0.0367
    133  CG        53.8730   18.6730    7.0140 C.3   265  GLN265      0.0905
    134  CD        52.5870   17.9030    6.7400 C.2   265  GLN265      0.2608
    135  OE1       52.5100   16.6860    6.9500 O.2   265  GLN265     -0.2717
    136  NE2       51.5640   18.6120    6.2820 N.am  265  GLN265     -0.0878
@<TRIPOS>BOND
     1    31    29   ar
     2    30    29   ar
     3    29    28    1
     4    54    53   ar
     5    46    45    1
     6    46    47    1
     7    65    66   ar
     8    65    63   ar
     9    20    18   ar
    10    20    22   ar
    11    66    64   ar
    12    18    17   ar
    13    28    25    1
    14    63    61   ar
    15    45    44    1
    16    55    53   ar
    17    53    52    1
    18    64    62   ar
    19    24    25    1
    20    61    62   ar
    21    61    60    1
    22    60    57    1
    23    13    14    1
    24    13    16    1
    25    13    12    1
    26    23    22    1
    27    39    40    1
    28    25    26    1
    29    14    15    2
    30    22    21   ar
    31    44    43    1
    32    10     9    1
    33    17    16    1
    34    17    19   ar
    35    51    50    2
    36    52    49    1
    37    40    43    1
    38    40    41    1
    39   127   125   am
    40    59    58    2
    41    50    56   am
    42    50    49    1
    43    21    19   ar
    44    57    58    1
    45    57    56    1
    46     9    11    1
    47     9     8    2
    48    26    27    2
    49    26    32   am
    50    49    48    1
    51    32    33    1
    52   125   126    2
    53   125   124    1
    54    78    77    1
    55    41    42    2
    56   122   121    2
    57     7     8    1
    58     7     6    1
    59    38    36    1
    60   124   123    1
    61    77    74    1
    62   121   120    1
    63    33    36    1
    64    33    34    1
    65    36    37    1
    66   123   120    1
    67   106   104    1
    68     6     5    1
    69    83    80    1
    70     5     2    1
    71   120   119    1
    72    35    34    2
    73   105   104    1
    74   104   103    2
    75    74    75    1
    76    74    73    1
    77    79    75   am
    78    79    80    1
    79    75    76    2
    80    80    81    1
    81    91    89    1
    82   113   114    1
    83   113   112    1
    84   136   134   am
    85   103   102    1
    86     3     2    1
    87     3     4    2
    88     2     1    1
    89    73    69   am
    90   134   135    2
    91   134   133    1
    92    89    88    1
    93   128   129    1
    94   133   132    1
    95   102   101    1
    96    81    82    2
    97   101   100    1
    98   116   117    1
    99   116   115    1
   100    69    70    2
   101    69    68    1
   102   112   111    1
   103   118   117    2
   104    93    92    1
   105    93    94    1
   106   132   129    1
   107    92    86   am
   108   129   130    1
   109   111   108    1
   110    88    90    1
   111    88    85    1
   112    71    72    1
   113    71    68    1
   114    96    94   am
   115    96    97    1
   116   115   109   am
   117    94    95    2
   118    68    67    1
   119   100    97    1
   120    84    85    1
   121   109   110    2
   122   109   108    1
   123    86    85    1
   124    86    87    2
   125   130   131    2
   126    97    98    1
   127   108   107    1
   128    98    99    2
