@<TRIPOS>MOLECULE
tmp/2zn9A00.pdb
 146 144 0 0 0
SMALL
GASTEIGER

@<TRIPOS>ATOM
      1  N        -23.6210    7.0310    9.6050 N.3    71  TYR71      -0.1241
      2  CA       -23.8500    6.2160    8.4100 C.3    71  TYR71       0.1605
      3  C        -22.9910    6.6900    7.2040 C.2    71  TYR71       0.2264
      4  O        -22.4260    5.8600    6.4430 O.2    71  TYR71      -0.2867
      5  CB       -25.3420    6.2070    8.0590 C.3    71  TYR71       0.0534
      6  CG       -25.6970    5.2880    6.9150 C.ar   71  TYR71      -0.0201
      7  CD1      -25.7210    3.9130    7.0900 C.ar   71  TYR71      -0.0009
      8  CD2      -26.0240    5.8040    5.6450 C.ar   71  TYR71      -0.0009
      9  CE1      -26.0460    3.0750    6.0400 C.ar   71  TYR71       0.0417
     10  CE2      -26.3560    4.9750    4.5930 C.ar   71  TYR71       0.0417
     11  CZ       -26.3670    3.6130    4.7890 C.ar   71  TYR71       0.1957
     12  OH       -26.6700    2.7550    3.7380 O.3    71  TYR71      -0.2866
     13  N        -19.0990    6.1760    8.0340 N.3    74  ASP74      -0.1225
     14  CA       -18.7900    4.7800    7.7320 C.3    74  ASP74       0.1805
     15  C        -18.6160    4.5190    6.2380 C.2    74  ASP74       0.2597
     16  O        -17.6500    3.8800    5.8310 O.2    74  ASP74      -0.2718
     17  CB       -19.8510    3.8290    8.3230 C.3    74  ASP74       0.1424
     18  CG       -19.8560    3.8200    9.8440 C.2    74  ASP74       0.3668
     19  OD1      -18.8710    4.2520   10.4790 O.co2  74  ASP74      -0.2456
     20  OD2      -20.8730    3.3980   10.4190 O.co2  74  ASP74      -0.2456
     21  N        -19.5620    4.9900    5.4330 N.am   75  TRP75      -0.1976
     22  CA       -19.4310    4.9500    3.9790 C.3    75  TRP75       0.1640
     23  C        -18.1810    5.6700    3.4060 C.2    75  TRP75       0.2290
     24  O        -17.5280    5.1420    2.5310 O.2    75  TRP75      -0.2864
     25  CB       -20.7130    5.4780    3.3220 C.3    75  TRP75       0.0576
     26  CG       -21.7550    4.4160    3.1450 C.ar   75  TRP75       0.0006
     27  CD1      -23.0020    4.3700    3.7180 C.ar   75  TRP75       0.0946
     28  CD2      -21.6280    3.2230    2.3610 C.ar   75  TRP75       0.0152
     29  NE1      -23.6620    3.2230    3.3280 N.ar   75  TRP75      -0.2442
     30  CE2      -22.8430    2.5000    2.4970 C.ar   75  TRP75       0.0810
     31  CE3      -20.6100    2.6990    1.5480 C.ar   75  TRP75       0.0012
     32  CZ2      -23.0700    1.2870    1.8480 C.ar   75  TRP75       0.0191
     33  CZ3      -20.8320    1.4950    0.9120 C.ar   75  TRP75       0.0001
     34  CH2      -22.0630    0.7960    1.0700 C.ar   75  TRP75       0.0015
     35  N        -15.2770    3.3770    4.0390 N.3    78  VAL78      -0.1245
     36  CA       -15.2780    2.2630    3.0790 C.3    78  VAL78       0.1561
     37  C        -14.7810    2.7120    1.6880 C.2    78  VAL78       0.2260
     38  O        -13.9850    2.0170    1.0440 O.2    78  VAL78      -0.2867
     39  CB       -16.6690    1.5850    2.9950 C.3    78  VAL78       0.0252
     40  CG1      -16.8200    0.8320    1.7170 C.3    78  VAL78       0.0019
     41  CG2      -16.8770    0.6460    4.1930 C.3    78  VAL78       0.0019
     42  N        -17.0640   -7.1160    0.7930 N.3   102  PHE102     -0.1227
     43  CA       -18.3810   -7.1930    1.4410 C.3   102  PHE102      0.1736
     44  C        -18.9010   -8.6180    1.4960 C.2   102  PHE102      0.2596
     45  O        -19.9480   -8.8630    2.0630 O.2   102  PHE102     -0.2718
     46  CB       -19.4100   -6.3130    0.7160 C.3   102  PHE102      0.0547
     47  CG       -19.0960   -4.8470    0.7500 C.ar  102  PHE102     -0.0202
     48  CD1      -19.5940   -4.0020   -0.2370 C.ar  102  PHE102     -0.0042
     49  CD2      -18.2890   -4.3050    1.7570 C.ar  102  PHE102     -0.0042
     50  CE1      -19.3120   -2.6450   -0.2290 C.ar  102  PHE102     -0.0003
     51  CE2      -17.9990   -2.9470    1.7730 C.ar  102  PHE102     -0.0003
     52  CZ       -18.5130   -2.1150    0.7760 C.ar  102  PHE102     -0.0000
     53  N        -18.1730   -9.5500    0.8820 N.am  103  GLY103     -0.1942
     54  CA       -18.5670  -10.9540    0.8780 C.3   103  GLY103      0.2014
     55  C        -19.3620  -11.4210   -0.3280 C.2   103  GLY103      0.2639
     56  O        -19.7970  -12.5640   -0.3610 O.2   103  GLY103     -0.2714
     57  N        -19.5510  -10.5420   -1.3160 N.am  104  TYR104     -0.1959
     58  CA       -20.1790  -10.8950   -2.6080 C.3   104  TYR104      0.1771
     59  C        -19.2350  -11.7080   -3.4800 C.2   104  TYR104      0.2619
     60  O        -18.0380  -11.4060   -3.5750 O.2   104  TYR104     -0.2715
     61  CB       -20.5680   -9.6440   -3.4020 C.3   104  TYR104      0.0574
     62  CG       -21.6810   -8.8530   -2.8140 C.ar  104  TYR104     -0.0198
     63  CD1      -21.4360   -7.8700   -1.8570 C.ar  104  TYR104     -0.0009
     64  CD2      -22.9910   -9.0700   -3.2190 C.ar  104  TYR104     -0.0009
     65  CE1      -22.4750   -7.1390   -1.3000 C.ar  104  TYR104      0.0417
     66  CE2      -24.0320   -8.3430   -2.6680 C.ar  104  TYR104      0.0417
     67  CZ       -23.7720   -7.3870   -1.7170 C.ar  104  TYR104      0.1957
     68  OH       -24.8210   -6.6720   -1.1920 O.3   104  TYR104     -0.2866
     69  N        -19.7870  -12.7200   -4.1460 N.am  105  ARG105     -0.1963
     70  CA       -19.0020  -13.5930   -5.0100 C.3   105  ARG105      0.1729
     71  C        -19.6600  -13.5000   -6.3960 C.2   105  ARG105      0.2616
     72  O        -20.6160  -14.2210   -6.7040 O.2   105  ARG105     -0.2715
     73  CB       -18.9820  -15.0210   -4.4320 C.3   105  ARG105      0.0348
     74  CG       -17.6040  -15.7040   -4.3400 C.3   105  ARG105      0.0492
     75  CD       -16.9100  -15.5660   -2.9680 C.3   105  ARG105      0.2205
     76  NE       -16.8000  -14.1710   -2.5510 N.pl3 105  ARG105     -0.0865
     77  CZ       -16.2380  -13.7360   -1.4290 C.cat 105  ARG105      0.5346
     78  NH1      -15.6960  -14.5740   -0.5630 N.pl3 105  ARG105      0.1354
     79  NH2      -16.2280  -12.4390   -1.1760 N.pl3 105  ARG105      0.1354
     80  N        -19.1550  -12.5620   -7.1990 N.am  106  LEU106     -0.1977
     81  CA       -19.7510  -12.1640   -8.4790 C.3   106  LEU106      0.1596
     82  C        -18.7080  -12.1900   -9.5930 C.2   106  LEU106      0.2287
     83  O        -17.5300  -11.9000   -9.3660 O.2   106  LEU106     -0.2864
     84  CB       -20.3270  -10.7410   -8.3930 C.3   106  LEU106      0.0297
     85  CG       -21.3710  -10.3010   -7.3500 C.3   106  LEU106      0.0022
     86  CD1      -21.1510   -8.8610   -6.9580 C.3   106  LEU106      0.0001
     87  CD2      -22.8070  -10.4910   -7.8140 C.3   106  LEU106      0.0001
     88  N        -27.7760   -4.6720   -1.6890 N.3   139  GLN139     -0.1245
     89  CA       -28.1410   -5.3590   -0.4450 C.3   139  GLN139      0.1566
     90  C        -29.6510   -5.4340   -0.2790 C.2   139  GLN139      0.2260
     91  O        -30.1520   -6.3650    0.3330 O.2   139  GLN139     -0.2867
     92  CB       -27.4620   -4.7440    0.7930 C.3   139  GLN139      0.0367
     93  CG       -27.9870   -3.3880    1.2230 C.3   139  GLN139      0.0905
     94  CD       -26.9840   -2.5700    2.0400 C.2   139  GLN139      0.2608
     95  OE1      -27.3790   -1.7500    2.8730 O.2   139  GLN139     -0.2717
     96  NE2      -25.6890   -2.7670    1.7850 N.am  139  GLN139     -0.0878
     97  N        -30.5840   -8.3970   -2.5440 N.3   142  THR142     -0.1218
     98  CA       -30.0350   -9.6600   -2.0200 C.3   142  THR142      0.1862
     99  C        -31.0080  -10.2130   -0.9790 C.2   142  THR142      0.2287
    100  O        -31.1910  -11.4160   -0.8510 O.2   142  THR142     -0.2866
    101  CB       -28.5960   -9.4500   -1.4360 C.3   142  THR142      0.1770
    102  OG1      -27.6860   -9.1490   -2.5080 O.3   142  THR142     -0.2211
    103  CG2      -28.0930  -10.6840   -0.6910 C.3   142  THR142      0.0375
    104  N        -34.0400  -11.6470   -2.8500 N.3   145  PHE145     -0.1227
    105  CA       -33.6250  -12.9530   -3.3670 C.3   145  PHE145      0.1736
    106  C        -33.5700  -14.0310   -2.2660 C.2   145  PHE145      0.2595
    107  O        -34.0240  -15.1680   -2.4760 O.2   145  PHE145     -0.2718
    108  CB       -32.2860  -12.8290   -4.0950 C.3   145  PHE145      0.0547
    109  CG       -31.9260  -14.0310   -4.9200 C.ar  145  PHE145     -0.0202
    110  CD1      -32.4050  -14.1730   -6.2160 C.ar  145  PHE145     -0.0042
    111  CD2      -31.1150  -15.0370   -4.3980 C.ar  145  PHE145     -0.0042
    112  CE1      -32.0760  -15.2920   -6.9680 C.ar  145  PHE145     -0.0003
    113  CE2      -30.7820  -16.1610   -5.1550 C.ar  145  PHE145     -0.0003
    114  CZ       -31.2620  -16.2850   -6.4330 C.ar  145  PHE145     -0.0000
    115  N        -33.0320  -13.6660   -1.0960 N.am  146  ARG146     -0.1980
    116  CA       -32.9230  -14.5940    0.0540 C.3   146  ARG146      0.1597
    117  C        -34.2630  -14.9530    0.7040 C.2   146  ARG146      0.2287
    118  O        -34.3630  -15.9830    1.3480 O.2   146  ARG146     -0.2864
    119  CB       -31.9580  -14.0630    1.1150 C.3   146  ARG146      0.0334
    120  CG       -30.4880  -14.1510    0.7410 C.3   146  ARG146      0.0492
    121  CD       -29.6710  -13.2590    1.6840 C.3   146  ARG146      0.2205
    122  NE       -28.2320  -13.4250    1.5030 N.pl3 146  ARG146     -0.0865
    123  CZ       -27.3090  -12.6590    2.0740 C.cat 146  ARG146      0.5346
    124  NH1      -27.6570  -11.6680    2.8770 N.pl3 146  ARG146      0.1354
    125  NH2      -26.0330  -12.8970    1.8380 N.pl3 146  ARG146      0.1354
    126  N        -30.7950  -21.3860    0.0440 N.3   152  GLN152     -0.1231
    127  CA       -29.7200  -20.4050   -0.2070 C.3   152  GLN152      0.1698
    128  C        -28.5940  -20.8900   -1.1240 C.2   152  GLN152      0.2592
    129  O        -27.4250  -20.5520   -0.9100 O.2   152  GLN152     -0.2718
    130  CB       -29.1510  -19.8390    1.1040 C.3   152  GLN152      0.0381
    131  CG       -30.2110  -19.3920    2.0970 C.3   152  GLN152      0.0905
    132  CD       -30.9120  -18.1100    1.7050 C.2   152  GLN152      0.2608
    133  OE1      -30.5840  -17.4800    0.6990 O.2   152  GLN152     -0.2717
    134  NE2      -31.8760  -17.7060    2.5100 N.am  152  GLN152     -0.0878
    135  N        -28.9550  -21.6600   -2.1510 N.am  153  ASP153     -0.1960
    136  CA       -27.9830  -22.2310   -3.0800 C.3   153  ASP153      0.1840
    137  C        -27.5360  -21.2380   -4.1590 C.2   153  ASP153      0.2622
    138  O        -26.5910  -21.5040   -4.9060 O.2   153  ASP153     -0.2715
    139  CB       -28.5150  -23.5350   -3.6900 C.3   153  ASP153      0.1450
    140  CG       -29.5060  -23.3080   -4.8500 C.2   153  ASP153      0.3671
    141  OD1      -30.5460  -22.6310   -4.6750 O.co2 153  ASP153     -0.2456
    142  OD2      -29.2470  -23.8420   -5.9440 O.co2 153  ASP153     -0.2456
    143  N        -28.1980  -20.0860   -4.2140 N.am  154  GLY154     -0.1954
    144  CA       -27.9250  -19.0850   -5.2530 C.3   154  GLY154      0.1869
    145  C        -28.6960  -19.2910   -6.5540 C.2   154  GLY154      0.2309
    146  O        -28.3130  -18.7490   -7.5840 O.2   154  GLY154     -0.2863
@<TRIPOS>BOND
     1    82    83    2
     2    82    81    1
     3    81    84    1
     4    81    80    1
     5    84    85    1
     6    87    85    1
     7   146   145    2
     8    85    86    1
     9    80    71   am
    10   112   114   ar
    11   112   110   ar
    12    72    71    2
    13   145   144    1
    14   114   113   ar
    15    71    70    1
    16   110   109   ar
    17   142   140   ar
    18   144   143    1
    19   113   111   ar
    20    70    73    1
    21    70    69    1
    22   109   111   ar
    23   109   108    1
    24   138   137    2
    25   140   141   ar
    26   140   139    1
    27    73    74    1
    28    74    75    1
    29   143   137   am
    30   137   136    1
    31    69    59   am
    32   108   105    1
    33   139   136    1
    34    60    59    2
    35    59    58    1
    36    61    62    1
    37    61    58    1
    38   105   104    1
    39   105   106    1
    40    64    62   ar
    41    64    66   ar
    42   136   135    1
    43    75    76    1
    44    62    63   ar
    45    66    67   ar
    46    58    57    1
    47    76    77    2
    48    97    98    1
    49   102   101    1
    50   107   106    2
    51   106   115   am
    52   135   128   am
    53    98   101    1
    54    98    99    1
    55    63    65   ar
    56    67    65   ar
    57    67    68    1
    58    88    89    1
    59   101   103    1
    60    77    79    1
    61    77    78    1
    62    57    55   am
    63   128   129    2
    64   128   127    1
    65   115   116    1
    66    99   100    2
    67    89    90    1
    68    89    92    1
    69    56    55    2
    70    55    54    1
    71    90    91    2
    72    48    50   ar
    73    48    47   ar
    74    50    52   ar
    75   127   126    1
    76   127   130    1
    77   116   117    1
    78   116   119    1
    79   133   132    2
    80   117   118    2
    81    46    47    1
    82    46    43    1
    83   120   119    1
    84   120   121    1
    85    47    49   ar
    86    52    51   ar
    87    92    93    1
    88    42    43    1
    89    54    53    1
    90    53    44   am
    91    33    34   ar
    92    33    31   ar
    93    38    37    2
    94    34    32   ar
    95   130   131    1
    96    93    94    1
    97    43    44    1
    98    44    45    2
    99   122   121    1
   100   122   123    2
   101    31    28   ar
   102    37    36    1
   103   132   131    1
   104   132   134   am
   105    40    39    1
   106    49    51   ar
   107    96    94   am
   108   125   123    1
   109    32    30   ar
   110    94    95    2
   111   123   124    1
   112    28    30   ar
   113    28    26   ar
   114    30    29   ar
   115    24    23    2
   116    39    36    1
   117    39    41    1
   118    36    35    1
   119    26    25    1
   120    26    27   ar
   121    25    22    1
   122    29    27   ar
   123    23    22    1
   124    12    11    1
   125    22    21    1
   126    10    11   ar
   127    10     8   ar
   128    11     9   ar
   129    21    15   am
   130     8     6   ar
   131    16    15    2
   132     9     7   ar
   133    15    14    1
   134     4     3    2
   135     6     7   ar
   136     6     5    1
   137     3     2    1
   138    14    13    1
   139    14    17    1
   140     5     2    1
   141    17    18    1
   142     2     1    1
   143    18    20   ar
   144    18    19   ar
