@<TRIPOS>MOLECULE
tmp/2zn9B00.pdb
 154 151 0 0 0
SMALL
GASTEIGER

@<TRIPOS>ATOM
      1  N        -48.4080    6.9220  -32.4370 N.3    71  TYR71      -0.1241
      2  CA       -48.1920    6.1560  -31.2160 C.3    71  TYR71       0.1605
      3  C        -48.9980    6.7080  -30.0140 C.2    71  TYR71       0.2264
      4  O        -49.5420    5.9250  -29.2100 O.2    71  TYR71      -0.2867
      5  CB       -46.6930    6.1210  -30.9000 C.3    71  TYR71       0.0534
      6  CG       -46.3210    5.2140  -29.7550 C.ar   71  TYR71      -0.0201
      7  CD1      -46.2800    3.8410  -29.9250 C.ar   71  TYR71      -0.0009
      8  CD2      -46.0050    5.7410  -28.4930 C.ar   71  TYR71      -0.0009
      9  CE1      -45.9500    3.0070  -28.8800 C.ar   71  TYR71       0.0417
     10  CE2      -45.6680    4.9120  -27.4360 C.ar   71  TYR71       0.0417
     11  CZ       -45.6400    3.5490  -27.6320 C.ar   71  TYR71       0.1957
     12  OH       -45.3300    2.6990  -26.5780 O.3    71  TYR71      -0.2866
     13  N        -52.9110    6.2370  -30.8490 N.3    74  ASP74      -0.1225
     14  CA       -53.2900    4.8510  -30.5780 C.3    74  ASP74       0.1805
     15  C        -53.4570    4.5290  -29.0930 C.2    74  ASP74       0.2597
     16  O        -54.3950    3.8200  -28.7080 O.2    74  ASP74      -0.2718
     17  CB       -52.2850    3.8690  -31.2070 C.3    74  ASP74       0.1424
     18  CG       -52.3410    3.8550  -32.7340 C.2    74  ASP74       0.3668
     19  OD1      -53.3500    4.2920  -33.3280 O.co2  74  ASP74      -0.2456
     20  OD2      -51.3510    3.4180  -33.3490 O.co2  74  ASP74      -0.2456
     21  N        -52.5300    5.0110  -28.2710 N.am   75  TRP75      -0.1976
     22  CA       -52.6320    4.9040  -26.8210 C.3    75  TRP75       0.1640
     23  C        -53.8550    5.6060  -26.2410 C.2    75  TRP75       0.2290
     24  O        -54.4170    5.1240  -25.2700 O.2    75  TRP75      -0.2864
     25  CB       -51.3630    5.4520  -26.1500 C.3    75  TRP75       0.0576
     26  CG       -50.3050    4.4170  -25.9990 C.ar   75  TRP75       0.0006
     27  CD1      -49.0630    4.4050  -26.5900 C.ar   75  TRP75       0.0946
     28  CD2      -50.3980    3.2040  -25.2340 C.ar   75  TRP75       0.0152
     29  NE1      -48.3780    3.2580  -26.2300 N.ar   75  TRP75      -0.2442
     30  CE2      -49.1720    2.5050  -25.4050 C.ar   75  TRP75       0.0810
     31  CE3      -51.3930    2.6430  -24.4190 C.ar   75  TRP75       0.0012
     32  CZ2      -48.9140    1.2810  -24.7820 C.ar   75  TRP75       0.0191
     33  CZ3      -51.1380    1.4230  -23.8040 C.ar   75  TRP75       0.0001
     34  CH2      -49.9060    0.7530  -23.9930 C.ar   75  TRP75       0.0015
     35  N        -56.8050    3.4200  -26.8570 N.3    78  VAL78      -0.1245
     36  CA       -56.7600    2.2950  -25.9070 C.3    78  VAL78       0.1561
     37  C        -57.2630    2.7230  -24.5150 C.2    78  VAL78       0.2260
     38  O        -58.0380    2.0010  -23.8590 O.2    78  VAL78      -0.2867
     39  CB       -55.3410    1.6830  -25.8300 C.3    78  VAL78       0.0252
     40  CG1      -55.2300    0.7540  -24.6920 C.3    78  VAL78       0.0019
     41  CG2      -55.0210    0.9470  -27.1270 C.3    78  VAL78       0.0019
     42  N        -54.9620   -7.0710  -23.6650 N.3   102  PHE102     -0.1227
     43  CA       -53.6360   -7.1460  -24.3000 C.3   102  PHE102      0.1736
     44  C        -53.0940   -8.5810  -24.3860 C.2   102  PHE102      0.2596
     45  O        -52.0150   -8.8000  -24.9200 O.2   102  PHE102     -0.2718
     46  CB       -52.6170   -6.2650  -23.5560 C.3   102  PHE102      0.0547
     47  CG       -52.9760   -4.8120  -23.5100 C.ar  102  PHE102     -0.0202
     48  CD1      -52.3360   -3.9650  -22.6120 C.ar  102  PHE102     -0.0042
     49  CD2      -53.9570   -4.2790  -24.3560 C.ar  102  PHE102     -0.0042
     50  CE1      -52.6550   -2.6150  -22.5490 C.ar  102  PHE102     -0.0003
     51  CE2      -54.2900   -2.9310  -24.2990 C.ar  102  PHE102     -0.0003
     52  CZ       -53.6380   -2.0970  -23.3940 C.ar  102  PHE102     -0.0000
     53  N        -53.8370   -9.5360  -23.8270 N.am  103  GLY103     -0.1942
     54  CA       -53.4310  -10.9330  -23.8100 C.3   103  GLY103      0.2014
     55  C        -52.7050  -11.4190  -22.5620 C.2   103  GLY103      0.2639
     56  O        -52.2650  -12.5720  -22.5220 O.2   103  GLY103     -0.2714
     57  N        -52.5750  -10.5500  -21.5550 N.am  104  TYR104     -0.1959
     58  CA       -51.9450  -10.8840  -20.2670 C.3   104  TYR104      0.1771
     59  C        -52.8580  -11.7330  -19.3960 C.2   104  TYR104      0.2619
     60  O        -54.0680  -11.4790  -19.3150 O.2   104  TYR104     -0.2715
     61  CB       -51.5790   -9.6220  -19.4750 C.3   104  TYR104      0.0574
     62  CG       -50.4070   -8.8790  -20.0210 C.ar  104  TYR104     -0.0198
     63  CD1      -50.5840   -7.8770  -20.9750 C.ar  104  TYR104     -0.0009
     64  CD2      -49.1150   -9.1650  -19.5830 C.ar  104  TYR104     -0.0009
     65  CE1      -49.5070   -7.1780  -21.4930 C.ar  104  TYR104      0.0417
     66  CE2      -48.0220   -8.4760  -20.1090 C.ar  104  TYR104      0.0417
     67  CZ       -48.2290   -7.4880  -21.0610 C.ar  104  TYR104      0.1957
     68  OH       -47.1630   -6.8040  -21.5840 O.3   104  TYR104     -0.2866
     69  N        -52.2640  -12.7200  -18.7270 N.am  105  ARG105     -0.1963
     70  CA       -53.0000  -13.6190  -17.8440 C.3   105  ARG105      0.1729
     71  C        -52.3570  -13.4720  -16.4570 C.2   105  ARG105      0.2616
     72  O        -51.4110  -14.1750  -16.1180 O.2   105  ARG105     -0.2715
     73  CB       -52.9480  -15.0580  -18.4000 C.3   105  ARG105      0.0348
     74  CG       -54.3120  -15.7520  -18.6020 C.3   105  ARG105      0.0492
     75  CD       -54.9490  -15.5550  -19.9950 C.3   105  ARG105      0.2205
     76  NE       -55.1660  -14.1470  -20.3100 N.pl3 105  ARG105     -0.0865
     77  CZ       -55.7020  -13.6680  -21.4290 C.cat 105  ARG105      0.5346
     78  NH1      -56.1230  -14.4670  -22.3980 N.pl3 105  ARG105      0.1354
     79  NH2      -55.8120  -12.3580  -21.5730 N.pl3 105  ARG105      0.1354
     80  N        -52.8550  -12.5070  -15.6850 N.am  106  LEU106     -0.1977
     81  CA       -52.2520  -12.0810  -14.4150 C.3   106  LEU106      0.1596
     82  C        -53.2960  -12.1240  -13.2990 C.2   106  LEU106      0.2287
     83  O        -54.4510  -11.7670  -13.5120 O.2   106  LEU106     -0.2864
     84  CB       -51.7000  -10.6510  -14.5280 C.3   106  LEU106      0.0297
     85  CG       -50.5790  -10.2620  -15.5110 C.3   106  LEU106      0.0022
     86  CD1      -50.6700   -8.7960  -15.8510 C.3   106  LEU106      0.0001
     87  CD2      -49.1650  -10.5960  -15.0080 C.3   106  LEU106      0.0001
     88  N        -44.1750   -4.6390  -21.2280 N.3   139  GLN139     -0.1245
     89  CA       -43.7850   -5.2950  -22.4840 C.3   139  GLN139      0.1566
     90  C        -42.2670   -5.4940  -22.5620 C.2   139  GLN139      0.2260
     91  O        -41.8050   -6.4900  -23.0870 O.2   139  GLN139     -0.2867
     92  CB       -44.3700   -4.6040  -23.7370 C.3   139  GLN139      0.0367
     93  CG       -43.7620   -3.2460  -24.1050 C.3   139  GLN139      0.0905
     94  CD       -44.6850   -2.3630  -24.9660 C.2   139  GLN139      0.2608
     95  OE1      -44.2280   -1.3800  -25.5680 O.2   139  GLN139     -0.2717
     96  NE2      -45.9770   -2.7010  -25.0180 N.am  139  GLN139     -0.0878
     97  N        -41.4300   -8.5200  -20.2080 N.3   142  THR142     -0.1218
     98  CA       -41.9420   -9.7630  -20.7980 C.3   142  THR142      0.1862
     99  C        -40.9620  -10.2550  -21.8590 C.2   142  THR142      0.2287
    100  O        -40.7020  -11.4440  -21.9710 O.2   142  THR142     -0.2866
    101  CB       -43.3680   -9.5520  -21.3880 C.3   142  THR142      0.1770
    102  OG1      -44.2550   -9.1180  -20.3410 O.3   142  THR142     -0.2211
    103  CG2      -43.9160  -10.8420  -22.0310 C.3   142  THR142      0.0375
    104  N        -38.0950  -11.6050  -20.0010 N.3   145  PHE145     -0.1227
    105  CA       -38.5340  -12.9050  -19.4800 C.3   145  PHE145      0.1736
    106  C        -38.6020  -14.0070  -20.5590 C.2   145  PHE145      0.2595
    107  O        -38.2100  -15.1560  -20.3080 O.2   145  PHE145     -0.2718
    108  CB       -39.8640  -12.7940  -18.7240 C.3   145  PHE145      0.0547
    109  CG       -40.1830  -14.0130  -17.8970 C.ar  145  PHE145     -0.0202
    110  CD1      -39.7030  -14.1340  -16.5950 C.ar  145  PHE145     -0.0042
    111  CD2      -40.9190  -15.0690  -18.4360 C.ar  145  PHE145     -0.0042
    112  CE1      -39.9760  -15.2720  -15.8410 C.ar  145  PHE145     -0.0003
    113  CE2      -41.1980  -16.2080  -17.6800 C.ar  145  PHE145     -0.0003
    114  CZ       -40.7200  -16.3080  -16.3830 C.ar  145  PHE145     -0.0000
    115  N        -39.0850  -13.6550  -21.7510 N.am  146  ARG146     -0.1980
    116  CA       -39.1640  -14.6080  -22.8780 C.3   146  ARG146      0.1597
    117  C        -37.8060  -15.0380  -23.4530 C.2   146  ARG146      0.2287
    118  O        -37.6990  -16.1230  -24.0230 O.2   146  ARG146     -0.2864
    119  CB       -40.0770  -14.0870  -23.9880 C.3   146  ARG146      0.0334
    120  CG       -41.5430  -14.2510  -23.6840 C.3   146  ARG146      0.0492
    121  CD       -42.3460  -13.3310  -24.5730 C.3   146  ARG146      0.2205
    122  NE       -43.7880  -13.4650  -24.3710 N.pl3 146  ARG146     -0.0865
    123  CZ       -44.6900  -12.6450  -24.9020 C.cat 146  ARG146      0.5346
    124  NH1      -44.3050  -11.6360  -25.6670 N.pl3 146  ARG146      0.1354
    125  NH2      -45.9730  -12.8300  -24.6560 N.pl3 146  ARG146      0.1354
    126  N        -37.1030  -17.8250  -20.7670 N.3   149  ASP149     -0.1239
    127  CA       -38.1070  -18.8900  -20.7390 C.3   149  ASP149      0.1674
    128  C        -38.1220  -19.6430  -22.0620 C.2   149  ASP149      0.2266
    129  O        -39.0120  -19.4370  -22.9050 O.2   149  ASP149     -0.2867
    130  CB       -39.4910  -18.3200  -20.4230 C.3   149  ASP149      0.1410
    131  CG       -40.4660  -19.3720  -19.9360 C.2   149  ASP149      0.3668
    132  OD1      -40.0700  -20.5530  -19.7900 O.co2 149  ASP149     -0.2456
    133  OD2      -41.6460  -19.0170  -19.6930 O.co2 149  ASP149     -0.2456
    134  N        -41.1870  -21.3650  -22.9500 N.3   152  GLN152     -0.1231
    135  CA       -42.2950  -20.4250  -22.7500 C.3   152  GLN152      0.1698
    136  C        -43.4080  -20.9220  -21.8120 C.2   152  GLN152      0.2592
    137  O        -44.6020  -20.7170  -22.0810 O.2   152  GLN152     -0.2718
    138  CB       -42.8570  -19.9500  -24.1010 C.3   152  GLN152      0.0381
    139  CG       -41.7940  -19.4090  -25.0480 C.3   152  GLN152      0.0905
    140  CD       -41.1920  -18.1010  -24.5820 C.2   152  GLN152      0.2608
    141  OE1      -41.6290  -17.5210  -23.5850 O.2   152  GLN152     -0.2717
    142  NE2      -40.1840  -17.6210  -25.3040 N.am  152  GLN152     -0.0878
    143  N        -43.0160  -21.5440  -20.7010 N.am  153  ASP153     -0.1960
    144  CA       -43.9970  -22.1010  -19.7630 C.3   153  ASP153      0.1840
    145  C        -44.4350  -21.1380  -18.6510 C.2   153  ASP153      0.2622
    146  O        -45.3310  -21.4450  -17.8720 O.2   153  ASP153     -0.2715
    147  CB       -43.5330  -23.4610  -19.2150 C.3   153  ASP153      0.1450
    148  CG       -42.5080  -23.3400  -18.0740 C.2   153  ASP153      0.3671
    149  OD1      -41.4630  -22.6620  -18.2250 O.co2 153  ASP153     -0.2456
    150  OD2      -42.7480  -23.9530  -17.0180 O.co2 153  ASP153     -0.2456
    151  N        -43.8300  -19.9590  -18.5990 N.am  154  GLY154     -0.1954
    152  CA       -44.1380  -18.9910  -17.5350 C.3   154  GLY154      0.1869
    153  C        -43.3380  -19.1760  -16.2450 C.2   154  GLY154      0.2309
    154  O        -43.5770  -18.4700  -15.2700 O.2   154  GLY154     -0.2863
@<TRIPOS>BOND
     1    20    18   ar
     2    19    18   ar
     3    18    17    1
     4     1     2    1
     5     2     5    1
     6     2     3    1
     7    17    14    1
     8     5     6    1
     9    13    14    1
    10    14    15    1
    11     3     4    2
    12     7     6   ar
    13     7     9   ar
    14     6     8   ar
    15    15    16    2
    16    15    21   am
    17     9    11   ar
    18     8    10   ar
    19    21    22    1
    20    11    10   ar
    21    11    12    1
    22    41    39    1
    23    35    36    1
    24    22    23    1
    25    22    25    1
    26    27    29   ar
    27    27    26   ar
    28    23    24    2
    29    29    30   ar
    30    25    26    1
    31    26    28   ar
    32    36    39    1
    33    36    37    1
    34    39    40    1
    35   124   123    1
    36    95    94    2
    37    30    28   ar
    38    30    32   ar
    39   142   140   am
    40    28    31   ar
    41   139   140    1
    42   139   138    1
    43    96    94   am
    44    94    93    1
    45    45    44    2
    46   123   125    1
    47   123   122    2
    48    32    34   ar
    49   140   141    2
    50   121   122    1
    51   121   120    1
    52    37    38    2
    53    31    33   ar
    54    44    43    1
    55    44    53   am
    56    49    51   ar
    57    49    47   ar
    58    43    42    1
    59    43    46    1
    60    51    52   ar
    61    93    92    1
    62   138   135    1
    63   118   117    2
    64    34    33   ar
    65   119   120    1
    66   119   116    1
    67    53    54    1
    68    54    55    1
    69    92    89    1
    70    46    47    1
    71    47    48   ar
    72   117   116    1
    73    52    50   ar
    74    91    90    2
    75   134   135    1
    76   129   128    2
    77   116   115    1
    78   135   136    1
    79    48    50   ar
    80    55    56    2
    81    55    57   am
    82    90    89    1
    83    89    88    1
    84    78    77    1
    85   137   136    2
    86   128   127    1
    87   103   101    1
    88   100    99    2
    89    99    98    1
    90   136   143   am
    91   115   106   am
    92    68    67    1
    93    79    77    1
    94    57    58    1
    95    65    67   ar
    96    65    63   ar
    97    77    76    2
    98   101    98    1
    99   101   102    1
   100    67    66   ar
   101    63    62   ar
   102    98    97    1
   103   126   127    1
   104   127   130    1
   105   143   144    1
   106   106   107    2
   107   106   105    1
   108   130   131    1
   109    76    75    1
   110    58    61    1
   111    58    59    1
   112    66    64   ar
   113    62    64   ar
   114    62    61    1
   115   104   105    1
   116    75    74    1
   117   131   132   ar
   118   131   133   ar
   119   144   147    1
   120   144   145    1
   121   105   108    1
   122    59    60    2
   123    59    69   am
   124   147   148    1
   125    69    70    1
   126   108   109    1
   127   145   151   am
   128   145   146    2
   129    74    73    1
   130   151   152    1
   131   111   109   ar
   132   111   113   ar
   133    73    70    1
   134   149   148   ar
   135   148   150   ar
   136   109   110   ar
   137    70    71    1
   138   113   114   ar
   139   152   153    1
   140   110   112   ar
   141    71    72    2
   142    71    80   am
   143   114   112   ar
   144   153   154    2
   145    86    85    1
   146    80    81    1
   147    85    87    1
   148    85    84    1
   149    84    81    1
   150    81    82    1
   151    83    82    2
