@<TRIPOS>MOLECULE
tmp/2zneB00.pdb
 168 163 0 0 0
SMALL
GASTEIGER

@<TRIPOS>ATOM
      1  N         -3.0730   -1.1070  -41.9290 N.3    47  MET47      -0.1230
      2  CA        -2.4220   -1.4670  -43.1940 C.3    47  MET47       0.1702
      3  C         -2.5360   -0.3830  -44.2310 C.2    47  MET47       0.2592
      4  O         -1.6700   -0.2770  -45.0890 O.2    47  MET47      -0.2718
      5  CB        -3.0500   -2.7140  -43.8180 C.3    47  MET47       0.0401
      6  CG        -2.7110   -4.0090  -43.1640 C.3    47  MET47       0.0596
      7  SD        -3.7460   -5.3050  -43.8680 S.3    47  MET47      -0.1393
      8  CE        -4.0330   -6.2850  -42.4180 C.3    47  MET47       0.0692
      9  N         -3.6330    0.3770  -44.2040 N.am   48  PHE48      -0.1976
     10  CA        -3.9490    1.3350  -45.2710 C.3    48  PHE48       0.1639
     11  C         -3.8670    2.8050  -44.8490 C.2    48  PHE48       0.2290
     12  O         -3.6680    3.6790  -45.6830 O.2    48  PHE48      -0.2864
     13  CB        -5.3130    1.0110  -45.9110 C.3    48  PHE48       0.0560
     14  CG        -5.3410   -0.3060  -46.6520 C.ar   48  PHE48      -0.0200
     15  CD1       -5.8160   -1.4610  -46.0350 C.ar   48  PHE48      -0.0042
     16  CD2       -4.8550   -0.4010  -47.9590 C.ar   48  PHE48      -0.0042
     17  CE1       -5.8370   -2.6910  -46.7140 C.ar   48  PHE48      -0.0003
     18  CE2       -4.8650   -1.6290  -48.6470 C.ar   48  PHE48      -0.0003
     19  CZ        -5.3580   -2.7680  -48.0280 C.ar   48  PHE48      -0.0000
     20  N         -9.3220   -4.9010  -50.7010 N.3    67  TYR67      -0.1241
     21  CA        -8.8020   -5.8720  -49.7670 C.3    67  TYR67       0.1605
     22  C         -9.8880   -6.7150  -49.1090 C.2    67  TYR67       0.2264
     23  O         -9.7930   -7.9410  -49.1060 O.2    67  TYR67      -0.2867
     24  CB        -7.9800   -5.1880  -48.6940 C.3    67  TYR67       0.0534
     25  CG        -7.1400   -6.1560  -47.8850 C.ar   67  TYR67      -0.0201
     26  CD1       -6.1320   -6.9200  -48.4940 C.ar   67  TYR67      -0.0009
     27  CD2       -7.3540   -6.3130  -46.5270 C.ar   67  TYR67      -0.0009
     28  CE1       -5.3610   -7.8130  -47.7360 C.ar   67  TYR67       0.0417
     29  CE2       -6.5840   -7.1870  -45.7720 C.ar   67  TYR67       0.0417
     30  CZ        -5.6030   -7.9260  -46.3820 C.ar   67  TYR67       0.1957
     31  OH        -4.8680   -8.7990  -45.6200 O.3    67  TYR67      -0.2866
     32  N        -11.7340   -8.7870  -51.7820 N.3    70  ASP70      -0.1225
     33  CA       -10.9390   -9.9780  -52.0930 C.3    70  ASP70       0.1805
     34  C        -11.0640  -11.0550  -51.0130 C.2    70  ASP70       0.2597
     35  O        -11.2560  -12.2060  -51.3380 O.2    70  ASP70      -0.2718
     36  CB        -9.4740   -9.6400  -52.2790 C.3    70  ASP70       0.1424
     37  CG        -9.1920   -8.9100  -53.5730 C.2    70  ASP70       0.3668
     38  OD1      -10.0720   -8.8110  -54.4630 O.co2  70  ASP70      -0.2456
     39  OD2       -8.0430   -8.4280  -53.6880 O.co2  70  ASP70      -0.2456
     40  N        -10.9780  -10.6820  -49.7330 N.am   71  TRP71      -0.1976
     41  CA       -11.1020  -11.6740  -48.6620 C.3    71  TRP71       0.1640
     42  C        -12.4660  -12.3390  -48.6110 C.2    71  TRP71       0.2290
     43  O        -12.5930  -13.5450  -48.2850 O.2    71  TRP71      -0.2864
     44  CB       -10.7670  -11.0450  -47.3070 C.3    71  TRP71       0.0576
     45  CG        -9.3070  -11.1120  -47.0380 C.ar   71  TRP71       0.0006
     46  CD1       -8.4070  -10.0990  -47.1250 C.ar   71  TRP71       0.0946
     47  CD2       -8.5580  -12.2920  -46.7130 C.ar   71  TRP71       0.0152
     48  NE1       -7.1440  -10.5670  -46.8450 N.ar   71  TRP71      -0.2442
     49  CE2       -7.2120  -11.9110  -46.5920 C.ar   71  TRP71       0.0810
     50  CE3       -8.9000  -13.6320  -46.5140 C.ar   71  TRP71       0.0012
     51  CZ2       -6.2000  -12.8200  -46.2650 C.ar   71  TRP71       0.0191
     52  CZ3       -7.8850  -14.5270  -46.1860 C.ar   71  TRP71       0.0001
     53  CH2       -6.5610  -14.1100  -46.0630 C.ar   71  TRP71       0.0015
     54  N        -12.5730  -14.9190  -51.3820 N.3    74  VAL74      -0.1245
     55  CA       -11.7720  -16.0700  -50.9270 C.3    74  VAL74       0.1561
     56  C        -12.5750  -16.9230  -49.9280 C.2    74  VAL74       0.2260
     57  O        -12.6290  -18.1510  -50.0370 O.2    74  VAL74      -0.2867
     58  CB       -10.4390  -15.5790  -50.2460 C.3    74  VAL74       0.0252
     59  CG1       -9.6820  -16.6990  -49.6810 C.3    74  VAL74       0.0019
     60  CG2       -9.5630  -14.8140  -51.2200 C.3    74  VAL74       0.0019
     61  N        -15.2690  -18.7280  -51.6330 N.3    77  THR77      -0.1203
     62  CA       -14.6560  -19.7950  -52.4370 C.3    77  THR77       0.1994
     63  C        -14.4250  -21.0510  -51.5840 C.2    77  THR77       0.2617
     64  O        -14.9040  -22.1330  -51.9150 O.2    77  THR77      -0.2717
     65  CB       -13.3470  -19.3290  -53.0750 C.3    77  THR77       0.1784
     66  OG1      -13.6250  -18.3120  -54.0450 O.3    77  THR77      -0.2211
     67  CG2      -12.5960  -20.4990  -53.7390 C.3    77  THR77       0.0376
     68  N        -13.7550  -20.8960  -50.4500 N.am   78  TYR78      -0.1975
     69  CA       -13.4430  -22.0470  -49.5990 C.3    78  TYR78       0.1639
     70  C        -14.5700  -22.5260  -48.6880 C.2    78  TYR78       0.2290
     71  O        -14.5530  -23.6780  -48.2430 O.2    78  TYR78      -0.2864
     72  CB       -12.1300  -21.8290  -48.8570 C.3    78  TYR78       0.0560
     73  CG       -10.9380  -21.8120  -49.8160 C.ar   78  TYR78      -0.0198
     74  CD1      -10.3100  -20.6090  -50.1480 C.ar   78  TYR78      -0.0009
     75  CD2      -10.4590  -23.0000  -50.4160 C.ar   78  TYR78      -0.0009
     76  CE1       -9.2110  -20.5680  -51.0390 C.ar   78  TYR78       0.0417
     77  CE2       -9.3320  -22.9730  -51.3000 C.ar   78  TYR78       0.0417
     78  CZ        -8.7380  -21.7450  -51.6010 C.ar   78  TYR78       0.1957
     79  OH        -7.6640  -21.6700  -52.4480 O.3    78  TYR78      -0.2866
     80  N        -17.1470  -24.0710  -49.1700 N.3    80  ARG80      -0.1245
     81  CA       -17.7840  -24.9090  -50.1840 C.3    80  ARG80       0.1563
     82  C        -19.1450  -25.4770  -49.7900 C.2    80  ARG80       0.2260
     83  O        -19.9510  -25.7910  -50.6690 O.2    80  ARG80      -0.2867
     84  CB       -16.8590  -26.0610  -50.5750 C.3    80  ARG80       0.0307
     85  CG       -16.8020  -26.2360  -52.0640 C.3    80  ARG80       0.0489
     86  CD       -15.5940  -25.5520  -52.6160 C.3    80  ARG80       0.2205
     87  NE       -15.9020  -24.7630  -53.8130 N.pl3  80  ARG80      -0.0865
     88  CZ       -15.0020  -24.4190  -54.7380 C.cat  80  ARG80       0.5346
     89  NH1      -13.7390  -24.8070  -54.6430 N.pl3  80  ARG80       0.1354
     90  NH2      -15.3690  -23.6980  -55.7710 N.pl3  80  ARG80       0.1354
     91  N         -8.0530  -26.6610  -46.9300 N.3    93  GLN93      -0.1245
     92  CA        -8.0970  -26.2720  -48.3390 C.3    93  GLN93       0.1566
     93  C         -7.6360  -24.8210  -48.5610 C.2    93  GLN93       0.2260
     94  O         -6.8360  -24.5660  -49.4410 O.2    93  GLN93      -0.2867
     95  CB        -9.5160  -26.4590  -48.8840 C.3    93  GLN93       0.0367
     96  CG        -9.9020  -27.8880  -48.9650 C.3    93  GLN93       0.0905
     97  CD        -8.8130  -28.6600  -49.6550 C.2    93  GLN93       0.2608
     98  OE1       -8.6030  -28.5030  -50.8740 O.2    93  GLN93      -0.2717
     99  NE2       -8.0630  -29.4710  -48.8810 N.am   93  GLN93      -0.0878
    100  N         -4.2190  -23.6820  -50.5040 N.3    97  GLY97      -0.1210
    101  CA        -4.3570  -22.8950  -51.7270 C.3    97  GLY97       0.1956
    102  C         -3.5530  -21.6050  -51.6420 C.2    97  GLY97       0.2611
    103  O         -3.1250  -21.0870  -52.6810 O.2    97  GLY97      -0.2717
    104  N         -3.3510  -21.1020  -50.4090 N.am   98  PHE98      -0.1976
    105  CA        -2.5080  -19.8910  -50.1220 C.3    98  PHE98       0.1639
    106  C         -1.0030  -20.1440  -50.1710 C.2    98  PHE98       0.2290
    107  O         -0.2260  -19.2080  -50.2260 O.2    98  PHE98      -0.2864
    108  CB        -2.8190  -19.2880  -48.7420 C.3    98  PHE98       0.0560
    109  CG        -4.2190  -18.7130  -48.6050 C.ar   98  PHE98      -0.0200
    110  CD1       -4.6850  -18.3080  -47.3650 C.ar   98  PHE98      -0.0042
    111  CD2       -5.0570  -18.5580  -49.7120 C.ar   98  PHE98      -0.0042
    112  CE1       -5.9900  -17.7450  -47.2240 C.ar   98  PHE98      -0.0003
    113  CE2       -6.3540  -18.0290  -49.5870 C.ar   98  PHE98      -0.0003
    114  CZ        -6.8090  -17.6110  -48.3350 C.ar   98  PHE98      -0.0000
    115  N          0.5380  -22.4550  -47.7520 N.3   100  TYR100     -0.1241
    116  CA         1.0480  -22.9970  -46.4910 C.3   100  TYR100      0.1605
    117  C          1.0090  -24.5290  -46.5570 C.2   100  TYR100      0.2264
    118  O          0.1710  -25.1160  -47.2640 O.2   100  TYR100     -0.2867
    119  CB         0.2150  -22.5530  -45.2800 C.3   100  TYR100      0.0534
    120  CG         0.2680  -21.0750  -44.9310 C.ar  100  TYR100     -0.0201
    121  CD1       -0.7030  -20.1800  -45.4290 C.ar  100  TYR100     -0.0009
    122  CD2        1.2710  -20.5750  -44.0820 C.ar  100  TYR100     -0.0009
    123  CE1       -0.6820  -18.8310  -45.0750 C.ar  100  TYR100      0.0417
    124  CE2        1.3200  -19.2260  -43.7380 C.ar  100  TYR100      0.0417
    125  CZ         0.3320  -18.3600  -44.2390 C.ar  100  TYR100      0.1957
    126  OH         0.3920  -17.0210  -43.8970 O.3   100  TYR100     -0.2866
    127  N         -5.2590  -15.2800  -40.6460 N.3   131  CYS131     -0.1221
    128  CA        -4.3310  -15.1510  -41.7820 C.3   131  CYS131      0.1808
    129  C         -3.3810  -13.9520  -41.6870 C.2   131  CYS131      0.2601
    130  O         -2.2280  -14.0500  -42.0730 O.2   131  CYS131     -0.2717
    131  CB        -5.0960  -15.0980  -43.1040 C.3   131  CYS131      0.0970
    132  SG        -6.0570  -16.6220  -43.4100 S.3   131  CYS131     -0.0800
    133  N         -3.8740  -12.8220  -41.1880 N.am  132  ILE132     -0.1979
    134  CA        -3.0190  -11.6590  -40.9330 C.3   132  ILE132      0.1595
    135  C         -1.9600  -12.0150  -39.9000 C.2   132  ILE132      0.2287
    136  O         -0.7980  -11.7190  -40.0890 O.2   132  ILE132     -0.2864
    137  CB        -3.8330  -10.4120  -40.4270 C.3   132  ILE132      0.0276
    138  CG1       -4.7140   -9.8450  -41.5510 C.3   132  ILE132      0.0022
    139  CG2       -2.8980   -9.3090  -39.8200 C.3   132  ILE132      0.0022
    140  CD1       -5.6760   -8.7440  -41.0510 C.3   132  ILE132      0.0001
    141  N          0.5590  -14.3840  -41.3480 N.3   135  GLN135     -0.1231
    142  CA         1.3970  -13.6280  -42.2860 C.3   135  GLN135      0.1698
    143  C          2.4910  -12.8500  -41.5320 C.2   135  GLN135      0.2592
    144  O          3.6670  -12.8730  -41.8930 O.2   135  GLN135     -0.2718
    145  CB         0.5000  -12.6980  -43.1130 C.3   135  GLN135      0.0381
    146  CG         1.1970  -11.7880  -44.1050 C.3   135  GLN135      0.0905
    147  CD         1.9890  -12.5220  -45.1860 C.2   135  GLN135      0.2608
    148  OE1        1.5240  -13.5160  -45.7720 O.2   135  GLN135     -0.2717
    149  NE2        3.2020  -12.0170  -45.4680 N.am  135  GLN135     -0.0878
    150  N          2.0870  -12.1740  -40.4700 N.am  136  ARG136     -0.1980
    151  CA         2.9880  -11.3780  -39.6690 C.3   136  ARG136      0.1597
    152  C          4.0920  -12.2310  -39.0010 C.2   136  ARG136      0.2287
    153  O          5.2690  -11.8590  -39.0200 O.2   136  ARG136     -0.2864
    154  CB         2.1680  -10.6120  -38.6080 C.3   136  ARG136      0.0334
    155  CG         1.9630   -9.1840  -38.9880 C.3   136  ARG136      0.0492
    156  CD         0.5840   -8.5510  -38.6400 C.3   136  ARG136      0.2205
    157  NE         0.1570   -8.7650  -37.2750 N.pl3 136  ARG136     -0.0865
    158  CZ        -0.8690   -8.1470  -36.6930 C.cat 136  ARG136      0.5346
    159  NH1       -1.5930   -7.2250  -37.3520 N.pl3 136  ARG136      0.1354
    160  NH2       -1.1570   -8.4540  -35.4310 N.pl3 136  ARG136      0.1354
    161  N          6.4700  -13.5380  -41.5880 N.3   139  ASP139     -0.1239
    162  CA         7.4520  -12.5220  -41.9730 C.3   139  ASP139      0.1674
    163  C          8.6730  -12.4770  -41.0350 C.2   139  ASP139      0.2266
    164  O          9.7800  -12.2410  -41.4950 O.2   139  ASP139     -0.2867
    165  CB         6.8060  -11.1380  -42.1330 C.3   139  ASP139      0.1410
    166  CG         5.9490  -11.0400  -43.3970 C.2   139  ASP139      0.3668
    167  OD1        5.0910  -10.1470  -43.4590 O.co2 139  ASP139     -0.2456
    168  OD2        6.1250  -11.8630  -44.3290 O.co2 139  ASP139     -0.2456
@<TRIPOS>BOND
     1    90    88    1
     2    88    89    1
     3    88    87    2
     4    38    37   ar
     5    66    65    1
     6    87    86    1
     7    67    65    1
     8    39    37   ar
     9    37    36    1
    10    65    62    1
    11   103   102    2
    12    86    85    1
    13    79    78    1
    14    62    61    1
    15    62    63    1
    16    36    33    1
    17    33    32    1
    18    33    34    1
    19    85    84    1
    20    64    63    2
    21   101   102    1
    22   101   100    1
    23   102   104   am
    24    78    77   ar
    25    78    76   ar
    26    63    68   am
    27    54    55    1
    28    35    34    2
    29    77    75   ar
    30    60    58    1
    31    76    74   ar
    32    34    40   am
    33    55    58    1
    34    55    56    1
    35    98    97    2
    36    20    21    1
    37    83    82    2
    38    84    81    1
    39    68    69    1
    40    75    73   ar
    41   104   105    1
    42    58    59    1
    43   107   106    2
    44    81    82    1
    45    81    80    1
    46   106   105    1
    47    74    73   ar
    48   105   108    1
    49    57    56    2
    50    73    72    1
    51    21    22    1
    52    21    24    1
    53    40    41    1
    54   111   113   ar
    55   111   109   ar
    56    97    96    1
    57    97    99   am
    58    69    72    1
    59    69    70    1
    60   113   114   ar
    61    94    93    2
    62    22    23    2
    63    96    95    1
    64    95    92    1
    65   108   109    1
    66    24    25    1
    67    70    71    2
    68    41    42    1
    69    41    44    1
    70    18    19   ar
    71    18    16   ar
    72    42    43    2
    73   109   110   ar
    74    93    92    1
    75    26    25   ar
    76    26    28   ar
    77    92    91    1
    78   114   112   ar
    79    19    17   ar
    80    16    14   ar
    81    25    27   ar
    82   115   116    1
    83    28    30   ar
    84   110   112   ar
    85    44    45    1
    86   118   117    2
    87    46    45   ar
    88    46    48   ar
    89    45    47   ar
    90    48    49   ar
    91    17    15   ar
    92    47    49   ar
    93    47    50   ar
    94    14    15   ar
    95    14    13    1
    96    49    51   ar
    97   117   116    1
    98    27    29   ar
    99    50    52   ar
   100   116   119    1
   101    30    29   ar
   102    30    31    1
   103    51    53   ar
   104    52    53   ar
   105    13    10    1
   106   148   147    2
   107    12    11    2
   108   149   147   am
   109   121   123   ar
   110   121   120   ar
   111   119   120    1
   112    10    11    1
   113    10     9    1
   114   147   146    1
   115     4     3    2
   116   123   125   ar
   117   120   122   ar
   118   168   166   ar
   119   125   126    1
   120   125   124   ar
   121     3     9   am
   122     3     2    1
   123   146   145    1
   124   122   124   ar
   125     7     6    1
   126     7     8    1
   127     5     2    1
   128     5     6    1
   129   167   166   ar
   130   132   131    1
   131   166   165    1
   132     2     1    1
   133   145   142    1
   134   131   128    1
   135   142   143    1
   136   142   141    1
   137   165   162    1
   138   130   129    2
   139   162   161    1
   140   162   163    1
   141   144   143    2
   142   128   129    1
   143   128   127    1
   144   129   133   am
   145   138   140    1
   146   138   137    1
   147   143   150   am
   148   164   163    2
   149   133   134    1
   150   134   137    1
   151   134   135    1
   152   150   151    1
   153   137   139    1
   154   136   135    2
   155   151   152    1
   156   151   154    1
   157   153   152    2
   158   155   156    1
   159   155   154    1
   160   156   157    1
   161   159   158    1
   162   157   158    2
   163   158   160    1
