@<TRIPOS>MOLECULE
tmp/2znoB00.pdb
 215 205 0 0 0
SMALL
GASTEIGER

@<TRIPOS>ATOM
      1  N         35.6240   37.1380   53.8980 N.3    40  ILE40      -0.1245
      2  CA        36.6500   38.1700   53.8120 C.3    40  ILE40       0.1561
      3  C         35.8570   39.4700   53.8040 C.2    40  ILE40       0.2260
      4  O         35.0410   39.6980   52.9060 O.2    40  ILE40      -0.2867
      5  CB        37.5070   38.0370   52.5320 C.3    40  ILE40       0.0252
      6  CG1       38.2120   36.6760   52.5230 C.3    40  ILE40       0.0019
      7  CG2       38.5310   39.1620   52.4690 C.3    40  ILE40       0.0019
      8  CD1       39.2480   36.4910   51.4100 C.3    40  ILE40       0.0001
      9  N         41.3300   39.8190   55.0590 N.3    46  LEU46      -0.1245
     10  CA        41.9550   39.3940   53.8130 C.3    46  LEU46       0.1561
     11  C         43.2720   38.6540   54.0390 C.2    46  LEU46       0.2260
     12  O         43.4530   37.5570   53.5100 O.2    46  LEU46      -0.2867
     13  CB        42.1880   40.6040   52.8970 C.3    46  LEU46       0.0270
     14  CG        42.7740   40.3810   51.4950 C.3    46  LEU46       0.0019
     15  CD1       41.9930   39.2990   50.7690 C.3    46  LEU46       0.0001
     16  CD2       42.7120   41.6760   50.7030 C.3    46  LEU46       0.0001
     17  N         42.8930   35.3660   54.9310 N.3    49  GLY49      -0.1210
     18  CA        42.3490   34.6450   53.7860 C.3    49  GLY49       0.1956
     19  C         43.3950   34.1000   52.8150 C.2    49  GLY49       0.2611
     20  O         43.2150   33.0300   52.2230 O.2    49  GLY49      -0.2717
     21  N         44.4930   34.8300   52.6520 N.am   50  GLU50      -0.1979
     22  CA        45.5660   34.4130   51.7570 C.3    50  GLU50       0.1602
     23  C         46.1070   33.0200   52.1310 C.2    50  GLU50       0.2287
     24  O         46.4520   32.2290   51.2420 O.2    50  GLU50      -0.2864
     25  CB        46.6930   35.4500   51.8110 C.3    50  GLU50       0.0415
     26  CG        47.1750   35.9610   50.4600 C.3    50  GLU50       0.1163
     27  CD        47.9200   37.2950   50.5830 C.2    50  GLU50       0.3649
     28  OE1       47.2500   38.3140   50.8910 O.co2  50  GLU50      -0.2457
     29  OE2       49.1690   37.3210   50.3840 O.co2  50  GLU50      -0.2457
     30  N         43.1290   30.2720   52.4870 N.3    53  ILE53      -0.1245
     31  CA        42.5890   30.0290   51.1410 C.3    53  ILE53       0.1561
     32  C         43.6360   29.4710   50.1670 C.2    53  ILE53       0.2260
     33  O         44.7180   30.0500   49.9830 O.2    53  ILE53      -0.2867
     34  CB        41.9640   31.3040   50.5100 C.3    53  ILE53       0.0252
     35  CG1       40.7790   31.7750   51.3540 C.3    53  ILE53       0.0019
     36  CG2       41.4530   30.9920   49.0970 C.3    53  ILE53       0.0019
     37  CD1       40.0800   33.0070   50.8110 C.3    53  ILE53       0.0001
     38  N         46.1220   43.4070   43.9740 N.3    62  ARG62      -0.1231
     39  CA        46.2700   41.9610   44.0300 C.3    62  ARG62       0.1694
     40  C         44.9260   41.2540   43.9020 C.2    62  ARG62       0.2592
     41  O         44.8410   40.1280   43.4250 O.2    62  ARG62      -0.2718
     42  CB        46.9660   41.5650   45.3270 C.3    62  ARG62       0.0321
     43  CG        47.7390   40.2510   45.2660 C.3    62  ARG62       0.0489
     44  CD        49.0460   40.4250   46.0340 C.3    62  ARG62       0.2205
     45  NE        48.8260   41.3860   47.1120 N.pl3  62  ARG62      -0.0865
     46  CZ        48.1900   41.1010   48.2460 C.cat  62  ARG62       0.5346
     47  NH1       47.7380   39.8670   48.4540 N.pl3  62  ARG62       0.1354
     48  NH2       47.9420   42.0610   49.1360 N.pl3  62  ARG62       0.1354
     49  N         43.8670   41.9160   44.3300 N.am   63  ILE63      -0.1966
     50  CA        42.5590   41.3110   44.2170 C.3    63  ILE63       0.1727
     51  C         42.1260   41.3310   42.7370 C.2    63  ILE63       0.2616
     52  O         41.7180   40.3120   42.1780 O.2    63  ILE63      -0.2715
     53  CB        41.5450   42.0650   45.0880 C.3    63  ILE63       0.0290
     54  CG1       42.0070   42.0270   46.5490 C.3    63  ILE63       0.0022
     55  CG2       40.1590   41.4360   44.9420 C.3    63  ILE63       0.0023
     56  CD1       41.1170   42.7880   47.4880 C.3    63  ILE63       0.0001
     57  N         42.2370   42.4920   42.1030 N.am   64  PHE64      -0.1974
     58  CA        41.8530   42.6160   40.7050 C.3    64  PHE64       0.1639
     59  C         42.6220   41.6070   39.8580 C.2    64  PHE64       0.2290
     60  O         42.0720   40.9800   38.9560 O.2    64  PHE64      -0.2864
     61  CB        42.1340   44.0310   40.1920 C.3    64  PHE64       0.0560
     62  CG        41.7130   44.2520   38.7650 C.ar   64  PHE64      -0.0200
     63  CD1       40.3670   44.2550   38.4170 C.ar   64  PHE64      -0.0042
     64  CD2       42.6640   44.4430   37.7680 C.ar   64  PHE64      -0.0042
     65  CE1       39.9670   44.4470   37.0890 C.ar   64  PHE64      -0.0003
     66  CE2       42.2820   44.6350   36.4460 C.ar   64  PHE64      -0.0003
     67  CZ        40.9260   44.6370   36.1030 C.ar   64  PHE64      -0.0000
     68  N         43.6900   38.8950   40.8830 N.3    66  GLY66      -0.1210
     69  CA        43.2060   37.5800   41.2520 C.3    66  GLY66       0.1956
     70  C         42.0210   37.2250   40.3760 C.2    66  GLY66       0.2612
     71  O         41.8180   36.0660   40.0230 O.2    66  GLY66      -0.2717
     72  N         41.2370   38.2360   40.0240 N.am   67  CYS67      -0.1956
     73  CA        40.0780   38.0310   39.1760 C.3    67  CYS67       0.1843
     74  C         40.5320   37.6940   37.7720 C.2    67  CYS67       0.2625
     75  O         39.8910   36.9220   37.0840 O.2    67  CYS67      -0.2714
     76  CB        39.2000   39.2810   39.1700 C.3    67  CYS67       0.0997
     77  SG        38.4280   39.6180   40.7810 S.3    67  CYS67      -0.0797
     78  N         41.6520   38.2660   37.3560 N.am   68  GLN68      -0.1977
     79  CA        42.2030   37.9990   36.0290 C.3    68  GLN68       0.1601
     80  C         42.4420   36.5000   35.8720 C.2    68  GLN68       0.2287
     81  O         41.9770   35.8710   34.9230 O.2    68  GLN68      -0.2864
     82  CB        43.5490   38.6880   35.8620 C.3    68  GLN68       0.0394
     83  CG        43.6070   40.1180   36.3170 C.3    68  GLN68       0.0908
     84  CD        43.1670   41.0620   35.2490 C.2    68  GLN68       0.2608
     85  OE1       41.9890   41.1040   34.8870 O.2    68  GLN68      -0.2717
     86  NE2       44.1140   41.8230   34.7150 N.am   68  GLN68      -0.0878
     87  N         41.2960   33.9840   37.5320 N.3    70  ARG70      -0.1231
     88  CA        40.0870   33.1790   37.5280 C.3    70  ARG70       0.1694
     89  C         39.4060   33.2980   36.1750 C.2    70  ARG70       0.2592
     90  O         38.8700   32.3210   35.6560 O.2    70  ARG70      -0.2718
     91  CB        39.1360   33.6220   38.6370 C.3    70  ARG70       0.0321
     92  CG        37.8560   32.7760   38.7520 C.3    70  ARG70       0.0489
     93  CD        38.1540   31.2850   38.8670 C.3    70  ARG70       0.2205
     94  NE        37.7800   30.5460   37.6610 N.pl3  70  ARG70      -0.0865
     95  CZ        36.5800   30.0020   37.4460 C.cat  70  ARG70       0.5346
     96  NH1       35.6220   30.0990   38.3550 N.pl3  70  ARG70       0.1354
     97  NH2       36.3310   29.3670   36.3110 N.pl3  70  ARG70       0.1354
     98  N         39.4530   34.4910   35.5950 N.am   71  SER71      -0.1952
     99  CA        38.8380   34.7350   34.2980 C.3    71  SER71       0.1924
    100  C         39.3990   33.8240   33.2250 C.2    71  SER71       0.2314
    101  O         38.6550   33.1310   32.5300 O.2    71  SER71      -0.2863
    102  CB        39.0530   36.1830   33.8760 C.3    71  SER71       0.2116
    103  OG        38.3930   37.0420   34.7730 O.3    71  SER71      -0.2180
    104  N         33.2770   37.4580   27.9050 N.3   105  HIS105     -0.1241
    105  CA        33.0770   38.5140   28.8970 C.3   105  HIS105      0.1621
    106  C         31.6420   38.5820   29.3640 C.2   105  HIS105      0.2264
    107  O         31.3750   38.8000   30.5380 O.2   105  HIS105     -0.2867
    108  CB        33.4900   39.8660   28.3300 C.3   105  HIS105      0.0745
    109  CG        34.7650   40.3930   28.9070 C.ar  105  HIS105      0.0817
    110  ND1       35.7910   40.8840   28.1270 N.ar  105  HIS105     -0.2268
    111  CD2       35.1700   40.5320   30.1930 C.ar  105  HIS105      0.1154
    112  CE1       36.7710   41.3050   28.9070 C.ar  105  HIS105      0.1986
    113  NE2       36.4190   41.1030   30.1650 N.ar  105  HIS105     -0.2212
    114  N         31.0370   35.4610   31.5960 N.3   108  ILE108     -0.1231
    115  CA        31.6280   35.5000   32.9220 C.3   108  ILE108      0.1692
    116  C         30.7570   36.2710   33.9150 C.2   108  ILE108      0.2592
    117  O         30.5540   35.8280   35.0400 O.2   108  ILE108     -0.2718
    118  CB        33.0260   36.1190   32.8690 C.3   108  ILE108      0.0266
    119  CG1       33.9600   35.1630   32.1310 C.3   108  ILE108      0.0019
    120  CG2       33.5150   36.4340   34.2670 C.3   108  ILE108      0.0020
    121  CD1       35.3720   35.6640   31.9960 C.3   108  ILE108      0.0001
    122  N         30.2230   37.4090   33.4930 N.am  109  TYR109     -0.1976
    123  CA        29.3900   38.2090   34.3770 C.3   109  TYR109      0.1639
    124  C         28.0450   37.5750   34.6190 C.2   109  TYR109      0.2290
    125  O         27.4330   37.7820   35.6720 O.2   109  TYR109     -0.2864
    126  CB        29.2420   39.6240   33.8210 C.3   109  TYR109      0.0560
    127  CG        30.5430   40.3750   33.9370 C.ar  109  TYR109     -0.0198
    128  CD1       31.1160   40.6080   35.1950 C.ar  109  TYR109     -0.0009
    129  CD2       31.2410   40.7950   32.8020 C.ar  109  TYR109     -0.0009
    130  CE1       32.3580   41.2380   35.3240 C.ar  109  TYR109      0.0417
    131  CE2       32.4790   41.4230   32.9140 C.ar  109  TYR109      0.0417
    132  CZ        33.0330   41.6420   34.1780 C.ar  109  TYR109      0.1957
    133  OH        34.2500   42.2720   34.3040 O.3   109  TYR109     -0.2866
    134  N         28.8240   34.9360   37.0900 N.3   112  LEU112     -0.1245
    135  CA        29.2910   35.5770   38.3140 C.3   112  LEU112      0.1561
    136  C         28.0820   35.8850   39.1820 C.2   112  LEU112      0.2260
    137  O         28.1480   35.8420   40.4130 O.2   112  LEU112     -0.2867
    138  CB        30.0340   36.8750   37.9950 C.3   112  LEU112      0.0270
    139  CG        30.8410   37.4880   39.1480 C.3   112  LEU112      0.0019
    140  CD1       31.9500   36.5260   39.5530 C.3   112  LEU112      0.0001
    141  CD2       31.4460   38.8160   38.7230 C.3   112  LEU112      0.0001
    142  N         27.2730   33.4130   41.7470 N.3   115  LEU115     -0.1245
    143  CA        28.0240   33.3690   42.9940 C.3   115  LEU115      0.1561
    144  C         27.8570   34.6500   43.8180 C.2   115  LEU115      0.2260
    145  O         28.5920   34.8900   44.7850 O.2   115  LEU115     -0.2867
    146  CB        29.5040   33.1400   42.6840 C.3   115  LEU115      0.0270
    147  CG        29.8740   32.1730   41.5530 C.3   115  LEU115      0.0019
    148  CD1       31.3650   31.9030   41.6160 C.3   115  LEU115      0.0001
    149  CD2       29.1000   30.8790   41.6660 C.3   115  LEU115      0.0001
    150  N         30.2380   38.0790   47.2820 N.3   121  VAL121     -0.1231
    151  CA        30.5100   37.1130   46.2300 C.3   121  VAL121      0.1692
    152  C         31.4540   35.9870   46.6510 C.2   121  VAL121      0.2592
    153  O         32.4320   36.2050   47.3730 O.2   121  VAL121     -0.2718
    154  CB        31.1110   37.8220   45.0070 C.3   121  VAL121      0.0266
    155  CG1       32.2190   38.7570   45.4570 C.3   121  VAL121      0.0020
    156  CG2       31.6440   36.7960   44.0040 C.3   121  VAL121      0.0020
    157  N         31.1480   34.7810   46.1800 N.am  122  LEU122     -0.1966
    158  CA        31.9500   33.6030   46.4720 C.3   122  LEU122      0.1728
    159  C         33.1940   33.6150   45.6220 C.2   122  LEU122      0.2616
    160  O         33.1020   33.7760   44.4130 O.2   122  LEU122     -0.2715
    161  CB        31.1870   32.3270   46.1360 C.3   122  LEU122      0.0311
    162  CG        29.8870   32.0590   46.8730 C.3   122  LEU122      0.0022
    163  CD1       29.4200   30.6490   46.5620 C.3   122  LEU122      0.0001
    164  CD2       30.1130   32.2360   48.3670 C.3   122  LEU122      0.0001
    165  N         34.3520   33.4360   46.2500 N.am  123  ILE123     -0.1963
    166  CA        35.6030   33.3890   45.5070 C.3   123  ILE123      0.1727
    167  C         36.2210   32.0050   45.6480 C.2   123  ILE123      0.2616
    168  O         35.7270   31.1630   46.4070 O.2   123  ILE123     -0.2715
    169  CB        36.6160   34.4540   45.9790 C.3   123  ILE123      0.0290
    170  CG1       36.9860   34.2170   47.4430 C.3   123  ILE123      0.0022
    171  CG2       36.0460   35.8470   45.7350 C.3   123  ILE123      0.0023
    172  CD1       37.7610   35.3450   48.0490 C.3   123  ILE123      0.0001
    173  N         37.3010   31.7900   44.9030 N.am  124  SER124     -0.1950
    174  CA        38.0280   30.5250   44.8570 C.3   124  SER124      0.1924
    175  C         37.1980   29.2700   45.1190 C.2   124  SER124      0.2314
    176  O         37.1810   28.7390   46.2270 O.2   124  SER124     -0.2863
    177  CB        39.2370   30.5650   45.8030 C.3   124  SER124      0.2116
    178  OG        38.8460   30.6010   47.1620 O.3   124  SER124     -0.2180
    179  N         33.9700   37.3000   49.6470 N.3   130  MET130     -0.1245
    180  CA        34.4340   38.6510   49.9070 C.3   130  MET130      0.1570
    181  C         33.1580   39.4790   49.8710 C.2   130  MET130      0.2261
    182  O         32.4090   39.4100   48.8970 O.2   130  MET130     -0.2867
    183  CB        35.4100   39.0960   48.8100 C.3   130  MET130      0.0387
    184  CG        36.2830   40.3070   49.1560 C.3   130  MET130      0.0595
    185  SD        37.5480   40.6390   47.8750 S.3   130  MET130     -0.1393
    186  CE        38.3240   39.0530   47.7550 C.3   130  MET130      0.0692
    187  N         34.7920   48.6890   40.6070 N.3   145  PHE145     -0.1227
    188  CA        35.0100   47.4430   39.9010 C.3   145  PHE145      0.1736
    189  C         33.7930   46.5370   40.0200 C.2   145  PHE145      0.2595
    190  O         33.0950   46.2890   39.0350 O.2   145  PHE145     -0.2718
    191  CB        36.2460   46.7960   40.5250 C.3   145  PHE145      0.0547
    192  CG        36.5520   45.4060   40.0440 C.ar  145  PHE145     -0.0202
    193  CD1       36.7480   45.1400   38.6960 C.ar  145  PHE145     -0.0042
    194  CD2       36.7430   44.3780   40.9660 C.ar  145  PHE145     -0.0042
    195  CE1       37.1410   43.8680   38.2790 C.ar  145  PHE145     -0.0003
    196  CE2       37.1350   43.1100   40.5520 C.ar  145  PHE145     -0.0003
    197  CZ        37.3360   42.8550   39.2110 C.ar  145  PHE145     -0.0000
    198  N         33.5450   46.0520   41.2350 N.am  146  MET146     -0.1979
    199  CA        32.4230   45.1580   41.5020 C.3   146  MET146      0.1605
    200  C         31.0790   45.8200   41.7860 C.2   146  MET146      0.2287
    201  O         30.0500   45.1680   41.6550 O.2   146  MET146     -0.2864
    202  CB        32.7590   44.2110   42.6680 C.3   146  MET146      0.0413
    203  CG        33.7380   43.0980   42.3140 C.3   146  MET146      0.0598
    204  SD        33.1310   42.0630   40.9560 S.3   146  MET146     -0.1393
    205  CE        33.9510   42.8560   39.5530 C.3   146  MET146      0.0692
    206  N         33.3870   47.7310   31.8090 N.3   231  HIS231     -0.1241
    207  CA        34.5080   47.0320   32.4190 C.3   231  HIS231      0.1621
    208  C         35.7570   47.2620   31.5720 C.2   231  HIS231      0.2264
    209  O         36.8630   47.4120   32.0980 O.2   231  HIS231     -0.2867
    210  CB        34.2040   45.5320   32.5140 C.3   231  HIS231      0.0745
    211  CG        35.4060   44.6920   32.8120 C.ar  231  HIS231      0.0817
    212  ND1       35.9440   44.5850   34.0770 N.ar  231  HIS231     -0.2268
    213  CD2       36.2100   43.9680   31.9980 C.ar  231  HIS231      0.1154
    214  CE1       37.0310   43.8350   34.0280 C.ar  231  HIS231      0.1986
    215  NE2       37.2150   43.4470   32.7790 N.ar  231  HIS231     -0.2212
@<TRIPOS>BOND
     1   104   105    1
     2   110   109   ar
     3   110   112   ar
     4   108   105    1
     5   108   109    1
     6   105   106    1
     7   109   111   ar
     8   112   113   ar
     9   106   107    2
    10   113   111   ar
    11   208   209    2
    12   208   207    1
    13   114   115    1
    14   206   207    1
    15   121   119    1
    16   213   215   ar
    17   213   211   ar
    18   119   118    1
    19   207   210    1
    20   210   211    1
    21   101   100    2
    22   215   214   ar
    23   129   131   ar
    24   129   127   ar
    25   211   212   ar
    26   118   115    1
    27   118   120    1
    28   131   132   ar
    29   115   116    1
    30   100    99    1
    31   122   116   am
    32   122   123    1
    33   126   127    1
    34   126   123    1
    35   102    99    1
    36   102   103    1
    37   116   117    2
    38   127   128   ar
    39   214   212   ar
    40   132   133    1
    41   132   130   ar
    42    99    98    1
    43   123   124    1
    44   124   125    2
    45    86    84   am
    46    85    84    2
    47    81    80    2
    48   128   130   ar
    49    84    83    1
    50    98    89   am
    51    90    89    2
    52    82    79    1
    53    82    83    1
    54    80    79    1
    55    79    78    1
    56    67    66   ar
    57    67    65   ar
    58    89    88    1
    59    97    95    1
    60    66    64   ar
    61    75    74    2
    62    65    63   ar
    63   134   135    1
    64    78    74   am
    65    95    94    2
    66    95    96    1
    67    88    87    1
    68    88    91    1
    69    94    93    1
    70    64    62   ar
    71    74    73    1
    72   138   135    1
    73   138   139    1
    74   195   193   ar
    75   195   197   ar
    76   135   136    1
    77    63    62   ar
    78    91    92    1
    79   193   192   ar
    80   141   139    1
    81    92    93    1
    82    62    61    1
    83    60    59    2
    84   190   189    2
    85   139   140    1
    86    76    73    1
    87    76    77    1
    88    73    72    1
    89   136   137    2
    90   197   196   ar
    91   205   204    1
    92    59    58    1
    93   188   189    1
    94   188   191    1
    95   188   187    1
    96   189   198   am
    97    71    70    2
    98    72    70   am
    99   192   191    1
   100   192   194   ar
   101    61    58    1
   102    70    69    1
   103   196   194   ar
   104    58    57    1
   105    68    69    1
   106   204   203    1
   107   198   199    1
   108   199   200    1
   109   199   202    1
   110   147   148    1
   111   147   149    1
   112   147   146    1
   113   201   200    2
   114   142   143    1
   115    57    51   am
   116    52    51    2
   117   203   202    1
   118   146   143    1
   119    51    50    1
   120   143   144    1
   121    41    40    2
   122   144   145    2
   123    40    39    1
   124    40    49   am
   125    38    39    1
   126   156   154    1
   127    39    42    1
   128    50    49    1
   129    50    53    1
   130   160   159    2
   131   174   173    1
   132   174   175    1
   133   174   177    1
   134   173   167   am
   135    55    53    1
   136   154   155    1
   137   154   151    1
   138    53    54    1
   139   175   176    2
   140    43    42    1
   141    43    44    1
   142   166   167    1
   143   166   169    1
   144   166   165    1
   145   159   165   am
   146   159   158    1
   147   167   168    2
   148   171   169    1
   149   177   178    1
   150   169   170    1
   151    44    45    1
   152   161   158    1
   153   161   162    1
   154   157   158    1
   155   157   152   am
   156   151   152    1
   157   151   150    1
   158    54    56    1
   159   163   162    1
   160   152   153    2
   161   162   164    1
   162    45    46    2
   163   170   172    1
   164   186   185    1
   165   185   184    1
   166    46    47    1
   167    46    48    1
   168   183   184    1
   169   183   180    1
   170   182   181    2
   171    36    34    1
   172   179   180    1
   173   181   180    1
   174    33    32    2
   175    32    31    1
   176    29    27   ar
   177    26    27    1
   178    26    25    1
   179    34    31    1
   180    34    35    1
   181    27    28   ar
   182    16    14    1
   183    15    14    1
   184    37    35    1
   185    31    30    1
   186    24    23    2
   187     8     6    1
   188    14    13    1
   189    22    25    1
   190    22    23    1
   191    22    21    1
   192    20    19    2
   193     7     5    1
   194     6     5    1
   195     5     2    1
   196    21    19   am
   197    19    18    1
   198    13    10    1
   199     4     3    2
   200    12    11    2
   201    18    17    1
   202     3     2    1
   203     2     1    1
   204    10    11    1
   205    10     9    1
