@<TRIPOS>MOLECULE
tmp/2znwA00.pdb
 125 122 0 0 0
SMALL
GASTEIGER

@<TRIPOS>ATOM
      1  N        -35.1830   12.7560   -4.3370 N.3    34  HIS34      -0.1241
      2  CA       -35.8430   14.0610   -4.2250 C.3    34  HIS34       0.1621
      3  C        -34.9300   14.9870   -3.4560 C.2    34  HIS34       0.2264
      4  O        -34.1030   14.5160   -2.6920 O.2    34  HIS34      -0.2867
      5  CB       -37.1890   13.9320   -3.5040 C.3    34  HIS34       0.0745
      6  CG       -37.8980   12.6480   -3.7720 C.ar   34  HIS34       0.0817
      7  ND1      -38.5180   12.3790   -4.9710 N.ar   34  HIS34      -0.2268
      8  CD2      -38.0660   11.5450   -3.0080 C.ar   34  HIS34       0.1154
      9  CE1      -39.0470   11.1690   -4.9350 C.ar   34  HIS34       0.1986
     10  NE2      -38.7860   10.6410   -3.7530 N.ar   34  HIS34      -0.2212
     11  N        -34.5760   18.5200   -0.9260 N.3    36  TYR36      -0.1241
     12  CA       -35.1500   19.5210   -0.0240 C.3    36  TYR36       0.1605
     13  C        -34.1690   20.6390    0.3330 C.2    36  TYR36       0.2264
     14  O        -32.9540   20.4470    0.3830 O.2    36  TYR36      -0.2867
     15  CB       -35.6150   18.8570    1.2700 C.3    36  TYR36       0.0534
     16  CG       -36.6750   17.8040    1.0920 C.ar   36  TYR36      -0.0201
     17  CD1      -36.3240   16.4750    0.8990 C.ar   36  TYR36      -0.0009
     18  CD2      -38.0260   18.1300    1.1400 C.ar   36  TYR36      -0.0009
     19  CE1      -37.2940   15.4880    0.7450 C.ar   36  TYR36       0.0417
     20  CE2      -39.0020   17.1650    0.9860 C.ar   36  TYR36       0.0417
     21  CZ       -38.6350   15.8340    0.7850 C.ar   36  TYR36       0.1957
     22  OH       -39.5990   14.8380    0.6280 O.3    36  TYR36      -0.2866
     23  N        -39.5550   21.0000   -0.4590 N.3    46  LEU46      -0.1245
     24  CA       -39.2540   20.1480   -1.5970 C.3    46  LEU46       0.1561
     25  C        -38.9960   20.9880   -2.8550 C.2    46  LEU46       0.2260
     26  O        -39.8340   21.8140   -3.2330 O.2    46  LEU46      -0.2867
     27  CB       -40.4190   19.1880   -1.8130 C.3    46  LEU46       0.0270
     28  CG       -40.4770   18.2460   -3.0140 C.3    46  LEU46       0.0019
     29  CD1      -39.3970   17.1730   -2.9330 C.3    46  LEU46       0.0001
     30  CD2      -41.8660   17.6120   -3.1080 C.3    46  LEU46       0.0001
     31  N        -38.4880   16.8250   -7.4590 N.3    49  LYS49      -0.1231
     32  CA       -38.9140   15.4700   -7.1750 C.3    49  LYS49       0.1693
     33  C        -38.5330   14.5290   -8.3230 C.2    49  LYS49       0.2592
     34  O        -38.4850   14.9320   -9.4860 O.2    49  LYS49      -0.2718
     35  CB       -40.4160   15.4230   -6.8760 C.3    49  LYS49       0.0285
     36  CG       -41.3080   15.5640   -8.1010 C.3    49  LYS49       0.0035
     37  CD       -42.7830   15.5180   -7.7540 C.3    49  LYS49       0.0206
     38  CE       -43.6010   16.0920   -8.9150 C.3    49  LYS49       0.1093
     39  NZ       -45.0340   16.3300   -8.5580 N.3    49  LYS49      -0.1314
     40  N        -38.2370   13.2840   -7.9600 N.am   50  TYR50      -0.1976
     41  CA       -37.9160   12.2170   -8.9000 C.3    50  TYR50       0.1639
     42  C        -36.7530   12.5530   -9.8140 C.2    50  TYR50       0.2290
     43  O        -36.8520   12.3840  -11.0400 O.2    50  TYR50      -0.2864
     44  CB       -39.1490   11.7990   -9.7140 C.3    50  TYR50       0.0560
     45  CG       -40.1360   11.0330   -8.8970 C.ar   50  TYR50      -0.0198
     46  CD1      -39.7810    9.8320   -8.3090 C.ar   50  TYR50      -0.0009
     47  CD2      -41.4220   11.5150   -8.6950 C.ar   50  TYR50      -0.0009
     48  CE1      -40.6790    9.1290   -7.5450 C.ar   50  TYR50       0.0417
     49  CE2      -42.3410   10.8140   -7.9230 C.ar   50  TYR50       0.0417
     50  CZ       -41.9580    9.6200   -7.3460 C.ar   50  TYR50       0.1957
     51  OH       -42.8510    8.8920   -6.5820 O.3    50  TYR50      -0.2866
     52  N        -37.8000   16.3330  -11.9950 N.3    53  GLN53      -0.1245
     53  CA       -39.0890   16.9870  -12.2270 C.3    53  GLN53       0.1566
     54  C        -39.2950   18.2730  -11.4170 C.2    53  GLN53       0.2260
     55  O        -39.0380   18.3120  -10.2180 O.2    53  GLN53      -0.2867
     56  CB       -40.2330   16.0270  -11.9420 C.3    53  GLN53       0.0367
     57  CG       -40.2750   14.8140  -12.8300 C.3    53  GLN53       0.0905
     58  CD       -41.3140   13.8130  -12.3700 C.2    53  GLN53       0.2608
     59  OE1      -42.3900   14.1840  -11.8760 O.2    53  GLN53      -0.2717
     60  NE2      -41.0020   12.5370  -12.5210 N.am   53  GLN53      -0.0878
     61  N        -33.2990   12.6860   -0.6590 N.3    89  GLN89      -0.1245
     62  CA       -34.0370   11.5910   -0.0340 C.3    89  GLN89       0.1566
     63  C        -34.4550   10.5460   -1.0640 C.2    89  GLN89       0.2260
     64  O        -34.9840   10.9060   -2.1180 O.2    89  GLN89      -0.2867
     65  CB       -35.2820   12.1340    0.6670 C.3    89  GLN89       0.0367
     66  CG       -36.1000   11.0720    1.3800 C.3    89  GLN89       0.0905
     67  CD       -37.5690   11.1310    1.0080 C.2    89  GLN89       0.2608
     68  OE1      -38.2110   12.1750    1.1270 O.2    89  GLN89      -0.2717
     69  NE2      -38.1060   10.0090    0.5420 N.am   89  GLN89      -0.0878
     70  N        -36.8870    7.2570   -2.2230 N.3    91  SER91      -0.1217
     71  CA       -38.1920    6.6380   -1.9630 C.3    91  SER91       0.1889
     72  C        -38.3760    5.3130   -2.7070 C.2    91  SER91       0.2288
     73  O        -39.4810    4.8120   -2.8460 O.2    91  SER91      -0.2866
     74  CB       -39.3290    7.6080   -2.2750 C.3    91  SER91       0.2089
     75  OG       -39.3450    7.9580   -3.6510 O.3    91  SER91      -0.2183
     76  N        -37.3950    4.8210    3.8160 N.3    96  TYR96      -0.1241
     77  CA       -36.8830    5.9760    3.1080 C.3    96  TYR96       0.1605
     78  C        -35.6850    6.5040    3.8940 C.2    96  TYR96       0.2264
     79  O        -35.6180    6.3450    5.1230 O.2    96  TYR96      -0.2867
     80  CB       -37.9270    7.0730    2.9470 C.3    96  TYR96       0.0534
     81  CG       -39.2140    6.6760    2.2670 C.ar   96  TYR96      -0.0201
     82  CD1      -39.2630    5.6010    1.3670 C.ar   96  TYR96      -0.0009
     83  CD2      -40.3900    7.3990    2.5030 C.ar   96  TYR96      -0.0009
     84  CE1      -40.4510    5.2470    0.7420 C.ar   96  TYR96       0.0417
     85  CE2      -41.5830    7.0540    1.8770 C.ar   96  TYR96       0.0417
     86  CZ       -41.6040    5.9790    0.9960 C.ar   96  TYR96       0.1957
     87  OH       -42.7830    5.6310    0.3630 O.3    96  TYR96      -0.2866
     88  N        -36.6880    9.4140    8.5010 N.3   154  TYR154     -0.1241
     89  CA       -38.0830    9.1090    8.2040 C.3   154  TYR154      0.1605
     90  C        -38.5530    8.0660    9.1930 C.2   154  TYR154      0.2264
     91  O        -38.0010    6.9660    9.2460 O.2   154  TYR154     -0.2867
     92  CB       -38.2620    8.5680    6.7780 C.3   154  TYR154      0.0534
     93  CG       -39.5600    9.0090    6.1050 C.ar  154  TYR154     -0.0201
     94  CD1      -40.7780    8.4230    6.4310 C.ar  154  TYR154     -0.0009
     95  CD2      -39.5580   10.0290    5.1510 C.ar  154  TYR154     -0.0009
     96  CE1      -41.9580    8.8480    5.8120 C.ar  154  TYR154      0.0417
     97  CE2      -40.7160   10.4500    4.5320 C.ar  154  TYR154      0.0417
     98  CZ       -41.9070    9.8640    4.8660 C.ar  154  TYR154      0.1957
     99  OH       -43.0560   10.2950    4.2490 O.3   154  TYR154     -0.2866
    100  N        -47.4520   12.4470    2.8260 N.3   205  TRP205     -0.1227
    101  CA       -46.5110   11.5840    2.1440 C.3   205  TRP205      0.1737
    102  C        -45.8020   12.2690    0.9520 C.2   205  TRP205      0.2595
    103  O        -44.6240   12.0190    0.7090 O.2   205  TRP205     -0.2718
    104  CB       -47.2700   10.3370    1.7250 C.3   205  TRP205      0.0564
    105  CG       -46.4860    9.2570    1.0780 C.ar  205  TRP205      0.0003
    106  CD1      -45.8730    8.2290    1.6960 C.ar  205  TRP205      0.0946
    107  CD2      -46.2870    9.0700   -0.3240 C.ar  205  TRP205      0.0152
    108  NE1      -45.2850    7.4150    0.7820 N.ar  205  TRP205     -0.2442
    109  CE2      -45.5140    7.9080   -0.4740 C.ar  205  TRP205      0.0810
    110  CE3      -46.6860    9.7760   -1.4680 C.ar  205  TRP205      0.0012
    111  CZ2      -45.1140    7.4190   -1.7270 C.ar  205  TRP205      0.0191
    112  CZ3      -46.2900    9.2920   -2.7200 C.ar  205  TRP205      0.0001
    113  CH2      -45.5150    8.1150   -2.8340 C.ar  205  TRP205      0.0015
    114  N        -46.5000   13.1510    0.2400 N.am  206  ASP206     -0.1960
    115  CA       -45.9120   13.8650   -0.8980 C.3   206  ASP206      0.1840
    116  C        -44.6900   14.7160   -0.5640 C.2   206  ASP206      0.2622
    117  O        -43.9020   15.0210   -1.4560 O.2   206  ASP206     -0.2715
    118  CB       -46.9230   14.8200   -1.5240 C.3   206  ASP206      0.1450
    119  CG       -48.0840   14.1180   -2.1890 C.2   206  ASP206      0.3671
    120  OD1      -47.9810   12.9060   -2.4980 O.co2 206  ASP206     -0.2456
    121  OD2      -49.1080   14.7930   -2.4220 O.co2 206  ASP206     -0.2456
    122  N        -44.5590   15.1430    0.6940 N.am  207  GLY207     -0.1954
    123  CA       -43.5380   16.1100    1.0920 C.3   207  GLY207      0.1869
    124  C        -43.8770   17.5420    0.7150 C.2   207  GLY207      0.2309
    125  O        -43.0400   18.4300    0.8320 O.2   207  GLY207     -0.2863
@<TRIPOS>BOND
     1    57    58    1
     2    57    56    1
     3    60    58   am
     4    58    59    2
     5    53    52    1
     6    53    56    1
     7    53    54    1
     8    54    55    2
     9    43    42    2
    10    42    41    1
    11    44    41    1
    12    44    45    1
    13    34    33    2
    14    38    39    1
    15    38    37    1
    16    41    40    1
    17    45    47   ar
    18    45    46   ar
    19    47    49   ar
    20    33    40   am
    21    33    32    1
    22    46    48   ar
    23    36    37    1
    24    36    35    1
    25    49    50   ar
    26    48    50   ar
    27    31    32    1
    28    50    51    1
    29    32    35    1
    30     7     9   ar
    31     7     6   ar
    32     9    10   ar
    33     1     2    1
    34     2     5    1
    35     2     3    1
    36     6     5    1
    37     6     8   ar
    38    10     8   ar
    39    75    74    1
    40     3     4    2
    41    26    25    2
    42    30    28    1
    43    28    29    1
    44    28    27    1
    45    25    24    1
    46    73    72    2
    47   113   112   ar
    48   113   111   ar
    49   112   110   ar
    50    72    71    1
    51   120   119   ar
    52   121   119   ar
    53    74    71    1
    54    70    71    1
    55   119   118    1
    56    64    63    2
    57    27    24    1
    58   111   109   ar
    59    24    23    1
    60   118   115    1
    61   110   107   ar
    62   117   116    2
    63    63    62    1
    64    11    12    1
    65   115   116    1
    66   115   114    1
    67    61    62    1
    68   116   122   am
    69   109   107   ar
    70   109   108   ar
    71   107   105   ar
    72    62    65    1
    73    12    13    1
    74    12    15    1
    75   114   102   am
    76    13    14    2
    77    87    86    1
    78    69    67   am
    79    22    21    1
    80    65    66    1
    81   122   123    1
    82   103   102    2
    83   124   125    2
    84   124   123    1
    85    84    86   ar
    86    84    82   ar
    87    19    21   ar
    88    19    17   ar
    89   108   106   ar
    90    21    20   ar
    91    17    16   ar
    92   102   101    1
    93    20    18   ar
    94    86    85   ar
    95    67    68    2
    96    67    66    1
    97   105   106   ar
    98   105   104    1
    99    16    18   ar
   100    16    15    1
   101    82    81   ar
   102   104   101    1
   103    85    83   ar
   104   101   100    1
   105    81    83   ar
   106    81    80    1
   107    80    77    1
   108    77    76    1
   109    77    78    1
   110    78    79    2
   111    99    98    1
   112    97    98   ar
   113    97    95   ar
   114    98    96   ar
   115    95    93   ar
   116    96    94   ar
   117    93    94   ar
   118    93    92    1
   119    92    89    1
   120    89    88    1
   121    89    90    1
   122    90    91    2
