@<TRIPOS>MOLECULE
tmp/2znxD00.pdb
 76 72 0 0 0
SMALL
GASTEIGER

@<TRIPOS>ATOM
      1  N        -40.2570   -6.1260   27.1110 N.3    20  TYR20      -0.1241
      2  CA       -40.9900   -7.0280   26.2410 C.3    20  TYR20       0.1605
      3  C        -41.7080   -6.2290   25.1600 C.2    20  TYR20       0.2264
      4  O        -42.5350   -5.3490   25.4630 O.2    20  TYR20      -0.2867
      5  CB       -41.9970   -7.8720   27.0180 C.3    20  TYR20       0.0534
      6  CG       -42.7100   -8.8860   26.1360 C.ar   20  TYR20      -0.0201
      7  CD1      -42.1350  -10.1370   25.8580 C.ar   20  TYR20      -0.0009
      8  CD2      -43.9420   -8.5850   25.5530 C.ar   20  TYR20      -0.0009
      9  CE1      -42.7960  -11.0750   25.0340 C.ar   20  TYR20       0.0417
     10  CE2      -44.6040   -9.5060   24.7250 C.ar   20  TYR20       0.0417
     11  CZ       -44.0240  -10.7400   24.4750 C.ar   20  TYR20       0.1957
     12  OH       -44.6940  -11.6300   23.6780 O.3    20  TYR20      -0.2866
     13  N        -59.0370  -16.4970   23.1230 N.3    75  LEU75      -0.1231
     14  CA       -57.7440  -16.4650   22.4120 C.3    75  LEU75       0.1693
     15  C        -56.5590  -17.0020   23.2320 C.2    75  LEU75       0.2592
     16  O        -55.5620  -17.4510   22.6650 O.2    75  LEU75      -0.2718
     17  CB       -57.4280  -15.0580   21.8750 C.3    75  LEU75       0.0284
     18  CG       -58.2580  -14.5540   20.6850 C.3    75  LEU75       0.0019
     19  CD1      -57.9600  -13.0840   20.3500 C.3    75  LEU75       0.0001
     20  CD2      -57.9940  -15.4060   19.4850 C.3    75  LEU75       0.0001
     21  N        -56.6560  -16.9650   24.5570 N.am   76  CYS76      -0.1956
     22  CA       -55.5520  -17.4490   25.3730 C.3    76  CYS76       0.1843
     23  C        -55.7110  -18.9030   25.7900 C.2    76  CYS76       0.2625
     24  O        -54.8740  -19.4230   26.5210 O.2    76  CYS76      -0.2714
     25  CB       -55.2900  -16.5290   26.5760 C.3    76  CYS76       0.0997
     26  SG       -54.5380  -14.9740   26.1270 S.3    76  CYS76      -0.0797
     27  N        -56.7720  -19.5480   25.3000 N.am   77  ASN77      -0.1958
     28  CA       -57.0600  -20.9660   25.5520 C.3    77  ASN77       0.1819
     29  C        -57.0610  -21.3050   27.0350 C.2    77  ASN77       0.2621
     30  O        -56.3790  -22.2180   27.4820 O.2    77  ASN77      -0.2715
     31  CB       -56.0730  -21.8730   24.8030 C.3    77  ASN77       0.1195
     32  CG       -56.2780  -21.8380   23.3150 C.2    77  ASN77       0.2630
     33  OD1      -57.2260  -22.4360   22.7990 O.2    77  ASN77      -0.2716
     34  ND2      -55.3980  -21.1270   22.6060 N.am   77  ASN77      -0.0877
     35  N        -57.8430  -20.5490   27.7870 N.am   78  ILE78      -0.1977
     36  CA       -57.7320  -20.5440   29.2360 C.3    78  ILE78       0.1596
     37  C        -59.0900  -20.2320   29.8560 C.2    78  ILE78       0.2287
     38  O        -59.8300  -19.3810   29.3420 O.2    78  ILE78      -0.2864
     39  CB       -56.5500  -19.5750   29.6790 C.3    78  ILE78       0.0276
     40  CG1      -55.6380  -20.2450   30.6900 C.3    78  ILE78       0.0022
     41  CG2      -56.9730  -18.1220   30.0270 C.3    78  ILE78       0.0022
     42  CD1      -54.5470  -21.0220   30.0130 C.3    78  ILE78       0.0001
     43  N        -50.0050  -17.4050   34.0650 N.3    90  ALA90      -0.1245
     44  CA       -51.0670  -17.3360   33.0440 C.3    90  ALA90       0.1562
     45  C        -51.4040  -15.9110   32.6090 C.2    90  ALA90       0.2260
     46  O        -51.5980  -15.6400   31.4220 O.2    90  ALA90      -0.2867
     47  CB       -52.3460  -18.0670   33.5340 C.3    90  ALA90       0.0290
     48  N        -48.4610  -14.6140   30.4080 N.3    93  ASN93      -0.1225
     49  CA       -48.4810  -15.2500   29.0850 C.3    93  ASN93       0.1785
     50  C        -49.6000  -14.6920   28.2160 C.2    93  ASN93       0.2597
     51  O        -49.3860  -14.3470   27.0510 O.2    93  ASN93      -0.2718
     52  CB       -48.5980  -16.7740   29.2060 C.3    93  ASN93       0.1169
     53  CG       -47.3820  -17.4060   29.8710 C.2    93  ASN93       0.2627
     54  OD1      -46.3770  -16.7410   30.1300 O.2    93  ASN93      -0.2716
     55  ND2      -47.4610  -18.6930   30.1350 N.am   93  ASN93      -0.0877
     56  N        -50.7950  -14.5930   28.7920 N.am   94  CYS94      -0.1970
     57  CA       -51.9220  -13.9730   28.0890 C.3    94  CYS94       0.1712
     58  C        -51.6930  -12.4890   27.7410 C.2    94  CYS94       0.2296
     59  O        -51.9800  -12.0770   26.6270 O.2    94  CYS94      -0.2864
     60  CB       -53.2380  -14.1860   28.8410 C.3    94  CYS94       0.0983
     61  SG       -54.7060  -13.8180   27.8130 S.3    94  CYS94      -0.0798
     62  N        -49.4190  -12.1540   24.7290 N.3    97  LYS97      -0.1245
     63  CA       -50.1630  -12.3410   23.4890 C.3    97  LYS97       0.1561
     64  C        -50.9270  -11.0590   23.1080 C.2    97  LYS97       0.2260
     65  O        -50.8740  -10.6120   21.9650 O.2    97  LYS97      -0.2867
     66  CB       -51.1260  -13.5370   23.5830 C.3    97  LYS97       0.0271
     67  CG       -51.8970  -13.7660   22.2820 C.3    97  LYS97       0.0035
     68  CD       -52.3400  -15.1850   22.0940 C.3    97  LYS97       0.0206
     69  CE       -53.1340  -15.3250   20.8080 C.3    97  LYS97       0.1093
     70  NZ       -53.6010  -16.7370   20.6590 N.3    97  LYS97      -0.1314
     71  N        -48.7970   -8.2540   21.8550 N.3   100  SER100     -0.1217
     72  CA       -48.1490   -8.6070   20.5880 C.3   100  SER100      0.1889
     73  C        -49.0210   -8.2520   19.3760 C.2   100  SER100      0.2288
     74  O        -48.6000   -8.4120   18.2330 O.2   100  SER100     -0.2866
     75  CB       -47.7760  -10.0930   20.5570 C.3   100  SER100      0.2089
     76  OG       -46.7270  -10.3860   21.4600 O.3   100  SER100     -0.2183
@<TRIPOS>BOND
     1    74    73    2
     2    73    72    1
     3    20    18    1
     4    19    18    1
     5    75    72    1
     6    75    76    1
     7    72    71    1
     8    70    69    1
     9    18    17    1
    10    69    68    1
    11    17    14    1
    12    65    64    2
    13    68    67    1
    14    67    66    1
    15    14    13    1
    16    14    15    1
    17    34    32   am
    18    16    15    2
    19    33    32    2
    20    64    63    1
    21    15    21   am
    22    32    31    1
    23    63    66    1
    24    63    62    1
    25    12    11    1
    26    11    10   ar
    27    11     9   ar
    28    21    22    1
    29    10     8   ar
    30    31    28    1
    31     9     7   ar
    32     3     4    2
    33     3     2    1
    34    27    28    1
    35    27    23   am
    36    22    23    1
    37    22    25    1
    38    28    29    1
    39     8     6   ar
    40    23    24    2
    41     7     6   ar
    42    26    25    1
    43    26    61    1
    44     6     5    1
    45     2     5    1
    46     2     1    1
    47    59    58    2
    48    29    30    2
    49    29    35   am
    50    51    50    2
    51    58    57    1
    52    35    36    1
    53    61    60    1
    54    57    56    1
    55    57    60    1
    56    50    56   am
    57    50    49    1
    58    49    52    1
    59    49    48    1
    60    52    53    1
    61    36    39    1
    62    36    37    1
    63    38    37    2
    64    39    41    1
    65    39    40    1
    66    53    54    2
    67    53    55   am
    68    42    40    1
    69    46    45    2
    70    45    44    1
    71    44    47    1
    72    44    43    1
