@<TRIPOS>MOLECULE
tmp/2zo3B01.pdb
 217 219 0 0 0
SMALL
GASTEIGER

@<TRIPOS>ATOM
      1  N         22.5380   -5.9910   18.1710 N.3    43  HIS43      -0.1241
      2  CA        22.4530   -7.3450   17.6380 C.3    43  HIS43       0.1621
      3  C         21.7340   -7.3990   16.2920 C.2    43  HIS43       0.2264
      4  O         21.7810   -8.4320   15.6220 O.2    43  HIS43      -0.2867
      5  CB        21.7550   -8.3010   18.6200 C.3    43  HIS43       0.0745
      6  CG        20.2600   -8.2740   18.6430 C.ar   43  HIS43       0.0817
      7  ND1       19.5960   -7.5150   19.5990 N.ar   43  HIS43      -0.2268
      8  CD2       19.3030   -8.8950   17.9210 C.ar   43  HIS43       0.1154
      9  CE1       18.2900   -7.6710   19.4170 C.ar   43  HIS43       0.1986
     10  NE2       18.0970   -8.5030   18.3930 N.ar   43  HIS43      -0.2212
     11  N         25.8360  -10.0180   15.1770 N.3    47  TYR47      -0.1241
     12  CA        25.5920  -11.1450   16.0570 C.3    47  TYR47       0.1605
     13  C         26.2840  -12.3970   15.4980 C.2    47  TYR47       0.2264
     14  O         25.6710  -13.2670   14.8670 O.2    47  TYR47      -0.2867
     15  CB        24.0980  -11.4260   16.2970 C.3    47  TYR47       0.0534
     16  CG        23.9270  -12.3160   17.5160 C.ar   47  TYR47      -0.0201
     17  CD1       24.3390  -11.8540   18.7760 C.ar   47  TYR47      -0.0009
     18  CD2       23.3960  -13.5830   17.4050 C.ar   47  TYR47      -0.0009
     19  CE1       24.1750  -12.6960   19.8670 C.ar   47  TYR47       0.0417
     20  CE2       23.2400  -14.4240   18.5070 C.ar   47  TYR47       0.0417
     21  CZ        23.6420  -13.9520   19.7430 C.ar   47  TYR47       0.1957
     22  OH        23.4910  -14.7800   20.8420 O.3    47  TYR47      -0.2866
     23  N         25.1890  -16.1790   15.0420 N.3    50  TRP50      -0.1241
     24  CA        24.2530  -16.4510   13.9530 C.3    50  TRP50       0.1605
     25  C         24.8130  -16.0010   12.6180 C.2    50  TRP50       0.2264
     26  O         24.0990  -15.9010   11.6120 O.2    50  TRP50      -0.2867
     27  CB        22.9130  -15.7280   14.1960 C.3    50  TRP50       0.0550
     28  CG        22.1520  -16.2740   15.3770 C.ar   50  TRP50       0.0003
     29  CD1       22.4670  -17.3250   16.1890 C.ar   50  TRP50       0.0946
     30  CD2       20.9080  -15.7500   15.8640 C.ar   50  TRP50       0.0152
     31  NE1       21.4900  -17.4880   17.1500 N.ar   50  TRP50      -0.2442
     32  CE2       20.5260  -16.5290   16.9690 C.ar   50  TRP50       0.0810
     33  CE3       20.0870  -14.6880   15.4570 C.ar   50  TRP50       0.0012
     34  CZ2       19.3530  -16.2720   17.6720 C.ar   50  TRP50       0.0191
     35  CZ3       18.9260  -14.4390   16.1570 C.ar   50  TRP50       0.0001
     36  CH2       18.5670  -15.2280   17.2570 C.ar   50  TRP50       0.0015
     37  N         28.0990   -9.2660   22.7060 N.3    92  TRP92      -0.1241
     38  CA        27.3860  -10.2940   21.9850 C.3    92  TRP92       0.1605
     39  C         27.7890  -11.6910   22.4670 C.2    92  TRP92       0.2264
     40  O         27.0670  -12.6510   22.1670 O.2    92  TRP92      -0.2867
     41  CB        27.6290  -10.2070   20.4810 C.3    92  TRP92       0.0550
     42  CG        29.0650  -10.1250   20.0750 C.ar   92  TRP92       0.0003
     43  CD1       29.8140   -9.0000   19.8950 C.ar   92  TRP92       0.0946
     44  CD2       29.9270  -11.2450   19.7950 C.ar   92  TRP92       0.0152
     45  NE1       31.0980   -9.3380   19.5120 N.ar   92  TRP92      -0.2442
     46  CE2       31.1840  -10.7060   19.4500 C.ar   92  TRP92       0.0810
     47  CE3       29.7290  -12.6240   19.8090 C.ar   92  TRP92       0.0012
     48  CZ2       32.2550  -11.5420   19.1200 C.ar   92  TRP92       0.0191
     49  CZ3       30.7960  -13.4530   19.4790 C.ar   92  TRP92       0.0001
     50  CH2       32.0270  -12.8910   19.1420 C.ar   92  TRP92       0.0015
     51  N         28.0180  -12.8940   25.5900 N.3    94  GLU94      -0.1231
     52  CA        27.3310  -13.4360   26.7440 C.3    94  GLU94       0.1699
     53  C         25.8610  -13.0660   26.8520 C.2    94  GLU94       0.2592
     54  O         24.9920  -13.9300   26.7510 O.2    94  GLU94      -0.2718
     55  CB        28.0220  -12.9180   28.0190 C.3    94  GLU94       0.0402
     56  CG        27.5870  -13.6550   29.2700 C.3    94  GLU94       0.1161
     57  CD        27.9400  -12.8450   30.5110 C.2    94  GLU94       0.3649
     58  OE1       28.8070  -11.9510   30.4000 O.co2  94  GLU94      -0.2457
     59  OE2       27.3200  -13.1260   31.5570 O.co2  94  GLU94      -0.2457
     60  N         25.6340  -11.7740   27.1060 N.am   95  ASN95      -0.1960
     61  CA        24.2900  -11.3860   27.5660 C.3    95  ASN95       0.1819
     62  C         23.7360  -10.1930   26.8030 C.2    95  ASN95       0.2621
     63  O         22.7140   -9.6540   27.2520 O.2    95  ASN95      -0.2715
     64  CB        24.3290  -11.0310   29.0420 C.3    95  ASN95       0.1195
     65  CG        25.3040   -9.9530   29.4190 C.2    95  ASN95       0.2630
     66  OD1       26.0260   -9.4300   28.5680 O.2    95  ASN95      -0.2716
     67  ND2       25.3240   -9.5940   30.7040 N.am   95  ASN95      -0.0877
     68  N         24.3260   -9.7560   25.6990 N.am   96  LEU96      -0.1977
     69  CA        23.7560   -8.5960   24.9770 C.3    96  LEU96       0.1596
     70  C         23.8540   -7.3080   25.7810 C.2    96  LEU96       0.2287
     71  O         23.1300   -6.3300   25.5510 O.2    96  LEU96      -0.2864
     72  CB        22.3000   -8.8620   24.5740 C.3    96  LEU96       0.0297
     73  CG        22.0380   -9.1080   23.0870 C.3    96  LEU96       0.0022
     74  CD1       23.1170   -9.9710   22.4600 C.3    96  LEU96       0.0001
     75  CD2       20.6530   -9.7260   22.8620 C.3    96  LEU96       0.0001
     76  N         18.1800  -16.9880   33.6890 N.3   170  ARG170     -0.1231
     77  CA        19.5070  -17.4770   34.0200 C.3   170  ARG170      0.1694
     78  C         20.5580  -16.5400   33.4130 C.2   170  ARG170      0.2591
     79  O         21.7440  -16.6920   33.7050 O.2   170  ARG170     -0.2718
     80  CB        19.7310  -18.9360   33.5780 C.3   170  ARG170      0.0321
     81  CG        18.7020  -19.8930   34.1650 C.3   170  ARG170      0.0489
     82  CD        18.8010  -21.3060   33.6030 C.3   170  ARG170      0.2205
     83  NE        20.0600  -21.9340   33.9670 N.pl3 170  ARG170     -0.0865
     84  CZ        20.3350  -23.2240   33.7520 C.cat 170  ARG170      0.5346
     85  NH1       19.4590  -24.0230   33.1690 N.pl3 170  ARG170      0.1354
     86  NH2       21.5190  -23.6690   34.1320 N.pl3 170  ARG170      0.1354
     87  N         20.1080  -15.5760   32.6120 N.am  171  ILE171     -0.1980
     88  CA        21.0320  -14.6430   31.9640 C.3   171  ILE171      0.1595
     89  C         21.5820  -13.6450   32.9660 C.2   171  ILE171      0.2287
     90  O         20.8220  -13.1700   33.8160 O.2   171  ILE171     -0.2864
     91  CB        20.3220  -13.8760   30.8180 C.3   171  ILE171      0.0276
     92  CG1       19.7360  -14.8250   29.7580 C.3   171  ILE171      0.0022
     93  CG2       21.2310  -12.8570   30.1590 C.3   171  ILE171      0.0022
     94  CD1       20.8230  -15.5150   28.9480 C.3   171  ILE171      0.0001
     95  N          3.9380   -8.6920   24.7950 N.3   191  ASP191     -0.1225
     96  CA         5.4070   -8.7230   24.8390 C.3   191  ASP191      0.1805
     97  C          5.8810   -8.3540   23.4390 C.2   191  ASP191      0.2598
     98  O          5.1000   -8.4390   22.5050 O.2   191  ASP191     -0.2718
     99  CB         5.9440  -10.0980   25.2090 C.3   191  ASP191      0.1424
    100  CG         7.4160  -10.2460   25.4910 C.2   191  ASP191      0.3668
    101  OD1        8.1800   -9.2610   25.5700 O.co2 191  ASP191     -0.2456
    102  OD2        7.8580  -11.4160   25.6640 O.co2 191  ASP191     -0.2456
    103  N          7.1460   -7.9650   23.3510 N.am  192  ALA192     -0.1966
    104  CA         7.8030   -7.8950   22.0710 C.3   192  ALA192      0.1728
    105  C          8.1960   -9.3140   21.6430 C.2   192  ALA192      0.2616
    106  O          8.1430  -10.2320   22.4530 O.2   192  ALA192     -0.2715
    107  CB         9.0430   -7.0210   22.1510 C.3   192  ALA192      0.0334
    108  N          8.6630   -9.4360   20.4050 N.am  193  CYS193     -0.1954
    109  CA         9.0800  -10.7510   19.9000 C.3   193  CYS193      0.1843
    110  C         10.1080  -10.5970   18.7930 C.2   193  CYS193      0.2625
    111  O         10.4500   -9.4550   18.4450 O.2   193  CYS193     -0.2714
    112  CB         7.8040  -11.4510   19.4360 C.3   193  CYS193      0.0997
    113  SG         7.9840  -13.2580   19.3460 S.3   193  CYS193     -0.0797
    114  N         10.6540  -11.6750   18.2410 N.am  194  GLU194     -0.1977
    115  CA        11.5390  -11.5930   17.0850 C.3   194  GLU194      0.1602
    116  C         10.9820  -10.6790   16.0030 C.2   194  GLU194      0.2287
    117  O          9.7720  -10.7560   15.7430 O.2   194  GLU194     -0.2864
    118  CB        11.7120  -13.0050   16.5130 C.3   194  GLU194      0.0415
    119  CG        12.1530  -13.9660   17.6110 C.3   194  GLU194      0.1163
    120  CD        13.6040  -13.8590   17.9970 C.2   194  GLU194      0.3649
    121  OE1       14.2970  -13.0350   17.3980 O.co2 194  GLU194     -0.2457
    122  OE2       14.0580  -14.6120   18.9130 O.co2 194  GLU194     -0.2457
    123  N         12.9300   -6.4770   17.5320 N.3   197  SER197     -0.1217
    124  CA        14.2810   -6.0850   17.9160 C.3   197  SER197      0.1889
    125  C         14.6930   -4.7140   17.3880 C.2   197  SER197      0.2288
    126  O         14.4300   -4.4280   16.2160 O.2   197  SER197     -0.2866
    127  CB        15.3110   -7.0870   17.3630 C.3   197  SER197      0.2089
    128  OG        15.0730   -8.3890   17.8590 O.3   197  SER197     -0.2183
    129  N         14.2620   -2.5560   22.1940 N.3   217  VAL217     -0.1231
    130  CA        13.9200   -3.9730   22.3190 C.3   217  VAL217      0.1692
    131  C         15.1690   -4.8250   22.1250 C.2   217  VAL217      0.2593
    132  O         15.7750   -4.7500   21.0670 O.2   217  VAL217     -0.2718
    133  CB        12.8730   -4.3550   21.2510 C.3   217  VAL217      0.0266
    134  CG1       12.6700   -5.8790   21.2790 C.3   217  VAL217      0.0020
    135  CG2       11.5590   -3.6210   21.4940 C.3   217  VAL217      0.0020
    136  N         15.5220   -5.6180   23.1250 N.am  218  SER218     -0.1938
    137  CA        16.8010   -6.3190   23.0800 C.3   218  SER218      0.2055
    138  C         16.6750   -7.8130   23.1060 C.2   218  SER218      0.2643
    139  O         17.1600   -8.4960   22.1860 O.2   218  SER218     -0.2714
    140  CB        17.6370   -5.8110   24.2720 C.3   218  SER218      0.2130
    141  OG        18.9280   -6.4170   24.2400 O.3   218  SER218     -0.2179
    142  N         16.0610   -8.4300   24.1120 N.am  219  TRP219     -0.1959
    143  CA        16.0690   -9.8940   24.1420 C.3   219  TRP219      0.1771
    144  C         14.9820  -10.4090   25.0550 C.2   219  TRP219      0.2620
    145  O         14.3890   -9.6430   25.8000 O.2   219  TRP219     -0.2715
    146  CB        17.4250  -10.4320   24.6120 C.3   219  TRP219      0.0590
    147  CG        17.8730  -10.0980   25.9890 C.ar  219  TRP219      0.0006
    148  CD1       18.5960   -8.9810   26.3480 C.ar  219  TRP219      0.0946
    149  CD2       17.6700  -10.8380   27.2130 C.ar  219  TRP219      0.0152
    150  NE1       18.8400   -8.9990   27.7100 N.ar  219  TRP219     -0.2442
    151  CE2       18.2830  -10.1240   28.2490 C.ar  219  TRP219      0.0810
    152  CE3       17.0260  -12.0390   27.5450 C.ar  219  TRP219      0.0012
    153  CZ2       18.2880  -10.5520   29.5890 C.ar  219  TRP219      0.0191
    154  CZ3       17.0240  -12.4690   28.8680 C.ar  219  TRP219      0.0001
    155  CH2       17.6460  -11.7270   29.8900 C.ar  219  TRP219      0.0015
    156  N         14.7320  -11.7050   24.9760 N.am  220  GLY220     -0.1940
    157  CA        13.7170  -12.3290   25.8200 C.3   220  GLY220      0.2014
    158  C         13.8590  -13.8480   25.6180 C.2   220  GLY220      0.2639
    159  O         14.6160  -14.2600   24.7340 O.2   220  GLY220     -0.2714
    160  N         13.1520  -14.5950   26.4330 N.am  221  GLU221     -0.1963
    161  CA        13.1400  -16.0600   26.3980 C.3   221  GLU221      0.1733
    162  C         11.7790  -16.4870   25.8880 C.2   221  GLU221      0.2617
    163  O         10.7790  -16.4840   26.6090 O.2   221  GLU221     -0.2715
    164  CB        13.4730  -16.6050   27.7790 C.3   221  GLU221      0.0429
    165  CG        14.7320  -16.0280   28.3870 C.3   221  GLU221      0.1163
    166  CD        14.8900  -16.2810   29.8700 C.2   221  GLU221      0.3649
    167  OE1       14.7340  -15.3550   30.6880 O.co2 221  GLU221     -0.2457
    168  OE2       15.1720  -17.4500   30.2150 O.co2 221  GLU221     -0.2457
    169  N         11.7230  -16.8310   24.5960 N.am  222  GLY222     -0.1940
    170  CA        10.4120  -17.0430   23.9820 C.3   222  GLY222      0.2014
    171  C          9.7000  -15.6830   23.9420 C.2   222  GLY222      0.2639
    172  O         10.3530  -14.6370   24.0740 O.2   222  GLY222     -0.2714
    173  N          8.3850  -15.6700   23.7750 N.am  223  CYS223     -0.1967
    174  CA         7.6640  -14.3960   23.6850 C.3   223  CYS223      0.1712
    175  C          6.3650  -14.5090   24.4860 C.2   223  CYS223      0.2296
    176  O          5.5980  -15.4610   24.2910 O.2   223  CYS223     -0.2864
    177  CB         7.3760  -13.9860   22.2450 C.3   223  CYS223      0.0983
    178  SG         8.7570  -13.8290   21.1000 S.3   223  CYS223     -0.0798
    179  N          9.8890  -12.0520   31.1070 N.3   229  TYR229     -0.1227
    180  CA         9.7770  -10.6270   30.8170 C.3   229  TYR229      0.1736
    181  C         10.6090  -10.2270   29.6090 C.2   229  TYR229      0.2596
    182  O         11.6230  -10.8460   29.2920 O.2   229  TYR229     -0.2718
    183  CB        10.2310   -9.7800   32.0360 C.3   229  TYR229      0.0548
    184  CG         9.3450  -10.1740   33.2170 C.ar  229  TYR229     -0.0200
    185  CD1        9.7810  -11.1260   34.1370 C.ar  229  TYR229     -0.0009
    186  CD2        8.1000   -9.5880   33.3710 C.ar  229  TYR229     -0.0009
    187  CE1        8.9610  -11.4630   35.1920 C.ar  229  TYR229      0.0417
    188  CE2        7.2670   -9.9340   34.4310 C.ar  229  TYR229      0.0417
    189  CZ         7.7210  -10.8770   35.3290 C.ar  229  TYR229      0.1957
    190  OH         6.9210  -11.2400   36.3890 O.3   229  TYR229     -0.2866
    191  N         10.1900   -9.1710   28.9070 N.am  230  GLY230     -0.1942
    192  CA        11.0440   -8.6590   27.8390 C.3   230  GLY230      0.2014
    193  C         12.1510   -7.7810   28.3990 C.2   230  GLY230      0.2639
    194  O         11.9730   -7.0380   29.3740 O.2   230  GLY230     -0.2714
    195  N         13.3270   -7.8800   27.7510 N.am  231  PHE231     -0.1959
    196  CA        14.4630   -7.1000   28.2130 C.3   231  PHE231      0.1771
    197  C         14.8070   -6.0210   27.1920 C.2   231  PHE231      0.2619
    198  O         14.7760   -6.2720   25.9910 O.2   231  PHE231     -0.2715
    199  CB        15.6940   -7.9740   28.5100 C.3   231  PHE231      0.0574
    200  CG        15.5320   -8.6800   29.8610 C.ar  231  PHE231     -0.0200
    201  CD1       14.7140   -9.7850   29.9780 C.ar  231  PHE231     -0.0042
    202  CD2       16.2060   -8.1600   30.9720 C.ar  231  PHE231     -0.0042
    203  CE1       14.5550  -10.3960   31.2090 C.ar  231  PHE231     -0.0003
    204  CE2       16.0830   -8.8050   32.2060 C.ar  231  PHE231     -0.0003
    205  CZ        15.2760   -9.9140   32.3000 C.ar  231  PHE231     -0.0000
    206  N         15.1260   -4.8430   27.7090 N.am  232  TYR232     -0.1974
    207  CA        15.3650   -3.6470   26.9150 C.3   232  TYR232      0.1639
    208  C         16.6890   -2.9910   27.2730 C.2   232  TYR232      0.2290
    209  O         17.0070   -2.8620   28.4500 O.2   232  TYR232     -0.2864
    210  CB        14.2120   -2.6410   27.1350 C.3   232  TYR232      0.0560
    211  CG        12.8670   -3.2810   26.8170 C.ar  232  TYR232     -0.0198
    212  CD1       12.1880   -4.0890   27.7350 C.ar  232  TYR232     -0.0009
    213  CD2       12.2710   -3.0850   25.5800 C.ar  232  TYR232     -0.0009
    214  CE1       10.9720   -4.6450   27.3850 C.ar  232  TYR232      0.0417
    215  CE2       11.0690   -3.6470   25.2280 C.ar  232  TYR232      0.0417
    216  CZ        10.4100   -4.4440   26.1540 C.ar  232  TYR232      0.1957
    217  OH         9.2020   -4.9940   25.7950 O.3   232  TYR232     -0.2866
@<TRIPOS>BOND
     1    26    25    2
     2    25    24    1
     3    24    27    1
     4    24    23    1
     5    27    28    1
     6    14    13    2
     7    11    12    1
     8    28    30   ar
     9    28    29   ar
    10    33    30   ar
    11    33    35   ar
    12    13    12    1
    13     4     3    2
    14   117   116    2
    15    30    32   ar
    16   116   115    1
    17    12    15    1
    18    35    36   ar
    19    29    31   ar
    20   126   125    2
    21     3     2    1
    22    15    16    1
    23   118   115    1
    24   118   119    1
    25    32    31   ar
    26    32    34   ar
    27   115   114    1
    28    36    34   ar
    29   127   128    1
    30   127   124    1
    31   125   124    1
    32   121   120   ar
    33    18    16   ar
    34    18    20   ar
    35    16    17   ar
    36   123   124    1
    37   119   120    1
    38     2     1    1
    39     2     5    1
    40     8    10   ar
    41     8     6   ar
    42   120   122   ar
    43   114   110   am
    44    10     9   ar
    45   111   110    2
    46    20    21   ar
    47     5     6    1
    48     6     7   ar
    49    17    19   ar
    50   110   109    1
    51    48    50   ar
    52    48    46   ar
    53    50    49   ar
    54   113   112    1
    55   113   178    1
    56     9     7   ar
    57   112   109    1
    58    46    45   ar
    59    46    44   ar
    60    49    47   ar
    61    45    43   ar
    62    21    19   ar
    63    21    22    1
    64    44    47   ar
    65    44    42   ar
    66    43    42   ar
    67   109   108    1
    68    42    41    1
    69   108   105   am
    70    41    38    1
    71   132   131    2
    72   178   177    1
    73   133   134    1
    74   133   135    1
    75   133   130    1
    76   105   104    1
    77   105   106    2
    78    38    39    1
    79    38    37    1
    80   104   107    1
    81   104   103    1
    82   131   130    1
    83   131   136   am
    84    40    39    2
    85   139   138    2
    86   129   130    1
    87   177   174    1
    88    74    73    1
    89    98    97    2
    90    75    73    1
    91   137   138    1
    92   137   136    1
    93   137   140    1
    94    73    72    1
    95   138   142   am
    96   103    97   am
    97    97    96    1
    98   174   173    1
    99   174   175    1
   100   173   171   am
   101   171   170    1
   102   171   172    2
   103   170   169    1
   104   142   143    1
   105   143   146    1
   106   143   144    1
   107   141   140    1
   108   176   175    2
   109    72    69    1
   110   169   162   am
   111   146   147    1
   112   159   158    2
   113    95    96    1
   114    96    99    1
   115   156   144   am
   116   156   157    1
   117    69    68    1
   118    69    70    1
   119   144   145    2
   120    99   100    1
   121   215   213   ar
   122   215   216   ar
   123   100   101   ar
   124   100   102   ar
   125    71    70    2
   126   213   211   ar
   127    51    52    1
   128   158   157    1
   129   158   160   am
   130    68    62   am
   131   217   216    1
   132   162   161    1
   133   162   163    2
   134   147   148   ar
   135   147   149   ar
   136   198   197    2
   137   216   214   ar
   138   148   150   ar
   139   161   160    1
   140   161   164    1
   141    52    53    1
   142    52    55    1
   143    54    53    2
   144    62    63    2
   145    62    61    1
   146   211   210    1
   147   211   212   ar
   148    53    60   am
   149   207   210    1
   150   207   208    1
   151   207   206    1
   152    60    61    1
   153   197   206   am
   154   197   196    1
   155   149   152   ar
   156   149   151   ar
   157   208   209    2
   158   214   212   ar
   159   152   154   ar
   160    61    64    1
   161   150   151   ar
   162   195   196    1
   163   195   193   am
   164   164   165    1
   165   192   193    1
   166   192   191    1
   167    55    56    1
   168   196   199    1
   169   151   153   ar
   170   165   166    1
   171   193   194    2
   172   199   200    1
   173    66    65    2
   174   154   155   ar
   175   191   181   am
   176    94    92    1
   177    64    65    1
   178    56    57    1
   179   182   181    2
   180    65    67   am
   181   153   155   ar
   182   181   180    1
   183    92    91    1
   184   200   201   ar
   185   200   202   ar
   186   166   168   ar
   187   166   167   ar
   188   201   203   ar
   189    93    91    1
   190    58    57   ar
   191    57    59   ar
   192   180   179    1
   193   180   183    1
   194    91    88    1
   195   202   204   ar
   196   203   205   ar
   197    88    87    1
   198    88    89    1
   199   183   184    1
   200   204   205   ar
   201    87    78   am
   202    89    90    2
   203    85    84    1
   204   184   186   ar
   205   184   185   ar
   206   186   188   ar
   207    78    79    2
   208    78    77    1
   209    80    77    1
   210    80    81    1
   211    82    83    1
   212    82    81    1
   213    76    77    1
   214    84    83    2
   215    84    86    1
   216   185   187   ar
   217   188   189   ar
   218   187   189   ar
   219   189   190    1
