@<TRIPOS>MOLECULE
tmp/2zo5B00.pdb
 82 80 0 0 0
SMALL
GASTEIGER

@<TRIPOS>ATOM
      1  N         -3.6880   27.6440  138.0480 N.3     4  PRO4       -0.2102
      2  CA        -3.9300   27.3800  136.6370 C.3     4  PRO4        0.1504
      3  C         -5.3390   26.8730  136.3890 C.2     4  PRO4        0.2575
      4  O         -5.9530   26.2830  137.2890 O.2     4  PRO4       -0.2718
      5  CB        -2.9320   26.2890  136.3000 C.3     4  PRO4        0.0282
      6  CG        -2.6930   25.5910  137.6080 C.3     4  PRO4        0.0208
      7  CD        -2.7140   26.6920  138.6200 C.3     4  PRO4        0.0893
      8  N         -5.8330   27.1190  135.1840 N.am    5  VAL5       -0.1980
      9  CA        -7.1080   26.5680  134.7570 C.3     5  VAL5        0.1595
     10  C         -6.8680   25.4390  133.8010 C.2     5  VAL5        0.2287
     11  O         -5.7690   25.2570  133.2560 O.2     5  VAL5       -0.2864
     12  CB        -7.9990   27.6500  134.0910 C.3     5  VAL5        0.0276
     13  CG1       -8.2660   28.7760  135.0850 C.3     5  VAL5        0.0022
     14  CG2       -7.3710   28.1640  132.8100 C.3     5  VAL5        0.0022
     15  N         -6.8630   24.3030  130.4200 N.3     7  ALA7       -0.1231
     16  CA        -6.8970   24.8430  129.0510 C.3     7  ALA7        0.1694
     17  C         -7.7100   23.9630  128.1080 C.2     7  ALA7        0.2591
     18  O         -8.2500   24.4490  127.1250 O.2     7  ALA7       -0.2718
     19  CB        -5.4790   25.0290  128.5020 C.3     7  ALA7        0.0304
     20  N         -7.7930   22.6590  128.4010 N.am    8  MET8       -0.1979
     21  CA        -8.4740   21.7360  127.4780 C.3     8  MET8        0.1605
     22  C         -9.9350   22.0860  127.4190 C.2     8  MET8        0.2287
     23  O        -10.5670   21.9770  126.3720 O.2     8  MET8       -0.2864
     24  CB        -8.2940   20.2830  127.9150 C.3     8  MET8        0.0413
     25  CG        -6.8580   19.8530  127.9910 C.3     8  MET8        0.0598
     26  SD        -5.9580   20.0800  126.4550 S.3     8  MET8       -0.1393
     27  CE        -7.0820   19.4120  125.2240 C.3     8  MET8        0.0692
     28  N        -10.2190   24.8960  125.1400 N.3    11  PHE11      -0.1241
     29  CA        -9.9000   24.5100  123.7580 C.3    11  PHE11       0.1605
     30  C        -11.0880   23.8370  123.0690 C.2    11  PHE11       0.2264
     31  O        -11.1890   23.8550  121.8460 O.2    11  PHE11      -0.2867
     32  CB        -8.7030   23.5720  123.6950 C.3    11  PHE11       0.0534
     33  CG        -7.3730   24.2120  124.0240 C.ar   11  PHE11      -0.0203
     34  CD1       -7.1370   25.5650  123.7850 C.ar   11  PHE11      -0.0042
     35  CD2       -6.3440   23.4320  124.4930 C.ar   11  PHE11      -0.0042
     36  CE1       -5.8940   26.1330  124.0790 C.ar   11  PHE11      -0.0003
     37  CE2       -5.0830   24.0030  124.7640 C.ar   11  PHE11      -0.0003
     38  CZ        -4.8890   25.3560  124.5520 C.ar   11  PHE11      -0.0000
     39  N         -1.6610   27.7930  120.3730 N.3    21  HIS21      -0.1226
     40  CA        -1.0590   27.6650  121.7030 C.3    21  HIS21       0.1752
     41  C         -0.3360   26.3460  121.9050 C.2    21  HIS21       0.2596
     42  O          0.7640   26.3000  122.4700 O.2    21  HIS21      -0.2718
     43  CB        -2.1710   27.8280  122.7350 C.3    21  HIS21       0.0759
     44  CG        -1.6950   27.9310  124.1490 C.ar   21  HIS21       0.0818
     45  ND1       -1.4890   26.8230  124.9410 N.ar   21  HIS21      -0.2268
     46  CD2       -1.4180   29.0070  124.9260 C.ar   21  HIS21       0.1154
     47  CE1       -1.0840   27.2130  126.1420 C.ar   21  HIS21       0.1986
     48  NE2       -1.0540   28.5350  126.1680 N.ar   21  HIS21      -0.2212
     49  N         -0.9210   25.2470  121.4280 N.am   22  THR22      -0.1953
     50  CA        -0.3010   23.9290  121.6700 C.3    22  THR22       0.1897
     51  C          1.0070   23.6890  120.9210 C.2    22  THR22       0.2313
     52  O          1.8280   22.8790  121.3550 O.2    22  THR22      -0.2863
     53  CB        -1.3010   22.7920  121.3560 C.3    22  THR22       0.1794
     54  OG1       -1.5740   22.8180  119.9610 O.3    22  THR22      -0.2208
     55  CG2       -2.5580   22.9390  122.1420 C.3    22  THR22       0.0378
     56  N          3.1730   27.0010  124.8100 N.3    27  ALA27      -0.1231
     57  CA         2.3110   25.8240  125.0740 C.3    27  ALA27       0.1694
     58  C          2.2130   25.5140  126.5480 C.2    27  ALA27       0.2593
     59  O          1.2130   24.9290  126.9850 O.2    27  ALA27      -0.2718
     60  CB         2.8410   24.6350  124.3450 C.3    27  ALA27       0.0304
     61  N          3.2430   25.8550  127.3290 N.am   28  THR28      -0.1939
     62  CA         3.1980   25.5870  128.7670 C.3    28  THR28       0.2028
     63  C          2.6840   26.7560  129.5850 C.2    28  THR28       0.2642
     64  O          2.6550   26.6780  130.8090 O.2    28  THR28      -0.2714
     65  CB         4.5640   25.2120  129.3210 C.3    28  THR28       0.1808
     66  OG1        5.4180   26.3540  129.2280 O.3    28  THR28      -0.2208
     67  CG2        5.2020   24.0280  128.5710 C.3    28  THR28       0.0379
     68  N          2.3250   27.8570  128.9380 N.am   29  VAL29      -0.1963
     69  CA         1.9010   29.0590  129.6500 C.3    29  VAL29       0.1727
     70  C          0.3920   29.0240  129.8270 C.2    29  VAL29       0.2616
     71  O         -0.3750   29.0810  128.8560 O.2    29  VAL29      -0.2715
     72  CB         2.3590   30.3400  128.9100 C.3    29  VAL29       0.0290
     73  CG1        1.9110   31.6010  129.6330 C.3    29  VAL29       0.0023
     74  CG2        3.8780   30.3000  128.7630 C.3    29  VAL29       0.0023
     75  N         -0.0400   28.9360  131.0690 N.am   30  ASN30      -0.1972
     76  CA        -1.4590   28.7690  131.3490 C.3    30  ASN30       0.1688
     77  C         -2.2590   30.0310  131.0870 C.2    30  ASN30       0.2292
     78  O         -1.7760   31.1570  131.3000 O.2    30  ASN30      -0.2864
     79  CB        -1.6770   28.3080  132.7880 C.3    30  ASN30       0.1181
     80  CG        -3.0900   27.8430  133.0230 C.2    30  ASN30       0.2629
     81  OD1       -3.9070   28.5920  133.5490 O.2    30  ASN30      -0.2716
     82  ND2       -3.3770   26.5840  132.6550 N.am   30  ASN30      -0.0877
@<TRIPOS>BOND
     1    54    53    1
     2    39    40    1
     3    51    52    2
     4    51    50    1
     5    53    50    1
     6    53    55    1
     7    49    50    1
     8    49    41   am
     9    40    41    1
    10    40    43    1
    11    31    30    2
    12    41    42    2
    13    43    44    1
    14    30    29    1
    15    32    29    1
    16    32    33    1
    17    29    28    1
    18    34    33   ar
    19    34    36   ar
    20    33    35   ar
    21    36    38   ar
    22    44    46   ar
    23    44    45   ar
    24    60    57    1
    25    35    37   ar
    26    38    37   ar
    27    56    57    1
    28    46    48   ar
    29    45    47   ar
    30    57    58    1
    31    27    26    1
    32    47    48   ar
    33    23    22    2
    34    26    25    1
    35    58    59    2
    36    58    61   am
    37    18    17    2
    38    61    62    1
    39    22    21    1
    40    21    24    1
    41    21    20    1
    42    24    25    1
    43    17    20   am
    44    17    16    1
    45    19    16    1
    46    67    65    1
    47    74    72    1
    48    62    65    1
    49    62    63    1
    50    71    70    2
    51    72    73    1
    52    72    69    1
    53    68    63   am
    54    68    69    1
    55    16    15    1
    56    66    65    1
    57    63    64    2
    58    69    70    1
    59    70    75   am
    60    75    76    1
    61    77    78    2
    62    77    76    1
    63    76    79    1
    64    82    80   am
    65    79    80    1
    66    14    12    1
    67    80    81    2
    68    11    10    2
    69    10     9    1
    70    12     9    1
    71    12    13    1
    72     9     8    1
    73     8     3   am
    74     5     2    1
    75     5     6    1
    76     3     2    1
    77     3     4    2
    78     2     1    1
    79     6     7    1
    80     1     7    1
