@<TRIPOS>MOLECULE
tmp/2zoaB00.pdb
 104 99 0 0 0
SMALL
GASTEIGER

@<TRIPOS>ATOM
      1  N         31.2240   21.9110   45.4100 N.3    10  HIS10      -0.1241
      2  CA        32.5980   22.1320   44.9450 C.3    10  HIS10       0.1621
      3  C         32.9390   23.5740   44.5520 C.2    10  HIS10       0.2264
      4  O         33.7390   23.7800   43.6270 O.2    10  HIS10      -0.2867
      5  CB        32.9470   21.1650   43.7920 C.3    10  HIS10       0.0745
      6  CG        33.2910   19.8010   44.2780 C.ar   10  HIS10       0.0817
      7  ND1       34.5710   19.4510   44.6500 N.ar   10  HIS10      -0.2268
      8  CD2       32.5120   18.7380   44.5670 C.ar   10  HIS10       0.1154
      9  CE1       34.5730   18.2100   45.1000 C.ar   10  HIS10       0.1986
     10  NE2       33.3360   17.7610   45.0720 N.ar   10  HIS10      -0.2212
     11  N         31.3710   18.4100   50.7990 N.3    50  ASP50      -0.1239
     12  CA        32.1900   18.9610   49.6970 C.3    50  ASP50       0.1674
     13  C         31.6190   20.2770   49.2120 C.2    50  ASP50       0.2266
     14  O         31.3260   20.4220   48.0370 O.2    50  ASP50      -0.2867
     15  CB        32.3920   17.9480   48.5620 C.3    50  ASP50       0.1410
     16  CG        33.4470   16.9040   48.9090 C.2    50  ASP50       0.3668
     17  OD1       34.1220   16.9960   49.9600 O.co2  50  ASP50      -0.2456
     18  OD2       33.6010   15.9600   48.1330 O.co2  50  ASP50      -0.2456
     19  N         35.2140   15.5280   52.5210 N.3    80  ASN80      -0.1225
     20  CA        36.6780   15.4970   52.5640 C.3    80  ASN80       0.1785
     21  C         37.3620   16.7130   51.9230 C.2    80  ASN80       0.2597
     22  O         38.4420   17.0650   52.3560 O.2    80  ASN80      -0.2718
     23  CB        37.2240   14.1990   51.9450 C.3    80  ASN80       0.1169
     24  CG        36.6720   13.9630   50.5710 C.2    80  ASN80       0.2627
     25  OD1       35.4600   13.8170   50.4090 O.2    80  ASN80      -0.2716
     26  ND2       37.5410   13.9830   49.5560 N.am   80  ASN80      -0.0877
     27  N         36.7490   17.3420   50.9140 N.am   81  HIS81      -0.1975
     28  CA        37.3280   18.5410   50.2640 C.3    81  HIS81       0.1656
     29  C         37.2370   19.8030   51.1500 C.2    81  HIS81       0.2291
     30  O         37.9130   20.8070   50.9150 O.2    81  HIS81      -0.2864
     31  CB        36.6740   18.8090   48.8950 C.3    81  HIS81       0.0771
     32  CG        37.1000   17.8570   47.8150 C.ar   81  HIS81       0.0820
     33  ND1       37.8680   18.2480   46.7350 N.ar   81  HIS81      -0.2267
     34  CD2       36.8600   16.5340   47.6430 C.ar   81  HIS81       0.1154
     35  CE1       38.0930   17.2050   45.9510 C.ar   81  HIS81       0.1986
     36  NE2       37.4870   16.1550   46.4800 N.ar   81  HIS81      -0.2212
     37  N         41.0600   11.3290   51.9800 N.3   127  SER127     -0.1217
     38  CA        39.7940   11.3310   51.2360 C.3   127  SER127      0.1889
     39  C         38.7760   10.3770   51.8510 C.2   127  SER127      0.2288
     40  O         37.5680   10.5540   51.6580 O.2   127  SER127     -0.2866
     41  CB        40.0210   10.9030   49.7870 C.3   127  SER127      0.2089
     42  OG        40.5460   11.9680   49.0150 O.3   127  SER127     -0.2183
     43  N         36.2030    3.3230   41.5960 N.3   166  GLN166     -0.1231
     44  CA        36.8170    4.5900   41.9530 C.3   166  GLN166      0.1698
     45  C         36.4810    5.0270   43.3870 C.2   166  GLN166      0.2592
     46  O         37.3340    5.5360   44.1190 O.2   166  GLN166     -0.2718
     47  CB        36.3810    5.6860   40.9750 C.3   166  GLN166      0.0381
     48  CG        37.1220    7.0110   41.1540 C.3   166  GLN166      0.0905
     49  CD        36.6300    8.1140   40.2180 C.2   166  GLN166      0.2608
     50  OE1       35.9510    7.8560   39.1960 O.2   166  GLN166     -0.2717
     51  NE2       36.9720    9.3570   40.5600 N.am  166  GLN166     -0.0878
     52  N         35.2340    4.8410   43.7890 N.am  167  MET167     -0.1979
     53  CA        34.7560    5.4780   45.0100 C.3   167  MET167      0.1605
     54  C         34.8690    4.6300   46.2720 C.2   167  MET167      0.2287
     55  O         34.9940    5.1620   47.3700 O.2   167  MET167     -0.2864
     56  CB        33.3420    6.0110   44.7990 C.3   167  MET167      0.0413
     57  CG        33.2850    7.1200   43.7580 C.3   167  MET167      0.0598
     58  SD        34.0470    8.6650   44.3180 S.3   167  MET167     -0.1393
     59  CE        35.6720    8.5960   43.6020 C.3   167  MET167      0.0692
     60  N         37.7340    4.9390   48.9030 N.3   170  ILE170     -0.1245
     61  CA        37.5920    6.1700   49.6950 C.3   170  ILE170      0.1561
     62  C         36.1930    6.3650   50.3220 C.2   170  ILE170      0.2260
     63  O         35.8160    7.4880   50.6350 O.2   170  ILE170     -0.2867
     64  CB        38.0520    7.4400   48.8930 C.3   170  ILE170      0.0252
     65  CG1       37.2530    7.5810   47.5760 C.3   170  ILE170      0.0019
     66  CG2       39.5810    7.4040   48.6480 C.3   170  ILE170      0.0019
     67  CD1       37.5080    8.8600   46.8090 C.3   170  ILE170      0.0001
     68  N         29.5280   12.4540   48.2430 N.3   195  HIS195     -0.1241
     69  CA        30.8100   11.7990   47.9380 C.3   195  HIS195      0.1621
     70  C         30.8610   11.1080   46.5750 C.2   195  HIS195      0.2264
     71  O         31.8000   11.3480   45.8060 O.2   195  HIS195     -0.2867
     72  CB        31.2060   10.8350   49.0700 C.3   195  HIS195      0.0745
     73  CG        32.6250   10.3620   49.0080 C.ar  195  HIS195      0.0817
     74  ND1       33.7000   11.1980   49.2200 N.ar  195  HIS195     -0.2268
     75  CD2       33.1430    9.1370   48.7730 C.ar  195  HIS195      0.1154
     76  CE1       34.8220   10.5080   49.1160 C.ar  195  HIS195      0.1986
     77  NE2       34.5120    9.2540   48.8490 N.ar  195  HIS195     -0.2212
     78  N         28.8720   11.3900   43.8110 N.3   197  HIS197     -0.1241
     79  CA        28.4090   12.1290   42.6150 C.3   197  HIS197      0.1621
     80  C         27.6200   11.2150   41.6870 C.2   197  HIS197      0.2264
     81  O         27.8970   11.1300   40.4820 O.2   197  HIS197     -0.2867
     82  CB        29.5710   12.7310   41.8080 C.3   197  HIS197      0.0745
     83  CG        30.3610   13.7740   42.5350 C.ar  197  HIS197      0.0817
     84  ND1       30.5100   15.0600   42.0550 N.ar  197  HIS197     -0.2268
     85  CD2       31.0720   13.7190   43.6920 C.ar  197  HIS197      0.1154
     86  CE1       31.2780   15.7520   42.8820 C.ar  197  HIS197      0.1986
     87  NE2       31.6260   14.9650   43.8870 N.ar  197  HIS197     -0.2212
     88  N         29.2770   18.5530   38.3370 N.3   217  HIS217     -0.1241
     89  CA        29.8660   17.3650   37.7290 C.3   217  HIS217      0.1621
     90  C         29.5200   16.0710   38.4900 C.2   217  HIS217      0.2264
     91  O         29.2900   16.0620   39.7280 O.2   217  HIS217     -0.2867
     92  CB        31.3760   17.5400   37.5870 C.3   217  HIS217      0.0745
     93  CG        32.0830   17.6220   38.8960 C.ar  217  HIS217      0.0817
     94  ND1       31.7790   18.5820   39.8480 N.ar  217  HIS217     -0.2268
     95  CD2       33.0520   16.8440   39.4340 C.ar  217  HIS217      0.1154
     96  CE1       32.5440   18.3920   40.9070 C.ar  217  HIS217      0.1986
     97  NE2       33.3270   17.3510   40.6780 N.ar  217  HIS217     -0.2212
     98  N         30.2580   11.5930   38.7420 N.3   219  VAL219     -0.1245
     99  CA        31.2090   10.5150   38.4910 C.3   219  VAL219      0.1561
    100  C         30.5150    9.2100   38.1300 C.2   219  VAL219      0.2260
    101  O         29.6270    8.7510   38.8420 O.2   219  VAL219     -0.2867
    102  CB        32.4580   10.4070   39.4930 C.3   219  VAL219      0.0252
    103  CG1       32.4800   11.4780   40.5470 C.3   219  VAL219      0.0019
    104  CG2       32.7200    8.9930   40.0150 C.3   219  VAL219      0.0019
@<TRIPOS>BOND
     1    92    89    1
     2    92    93    1
     3    89    88    1
     4    89    90    1
     5   100    99    1
     6   100   101    2
     7    90    91    2
     8    99    98    1
     9    99   102    1
    10    93    95   ar
    11    93    94   ar
    12    50    49    2
    13    95    97   ar
    14   102   104    1
    15   102   103    1
    16    94    96   ar
    17    49    51   am
    18    49    48    1
    19    81    80    2
    20    97    96   ar
    21    47    48    1
    22    47    44    1
    23    43    44    1
    24    80    79    1
    25    82    83    1
    26    82    79    1
    27    44    45    1
    28    84    83   ar
    29    84    86   ar
    30    83    85   ar
    31    79    78    1
    32    86    87   ar
    33    45    52   am
    34    45    46    2
    35    59    58    1
    36     4     3    2
    37    85    87   ar
    38    57    58    1
    39    57    56    1
    40    52    53    1
    41     5     6    1
    42     5     2    1
    43     6     8   ar
    44     6     7   ar
    45     3     2    1
    46     8    10   ar
    47     7     9   ar
    48    56    53    1
    49     2     1    1
    50    53    54    1
    51    10     9   ar
    52    71    70    2
    53    35    36   ar
    54    35    33   ar
    55    54    55    2
    56    36    34   ar
    57    70    69    1
    58    33    32   ar
    59    67    65    1
    60    65    64    1
    61    34    32   ar
    62    32    31    1
    63    69    68    1
    64    69    72    1
    65    14    13    2
    66    18    16   ar
    67    15    16    1
    68    15    12    1
    69    66    64    1
    70    75    77   ar
    71    75    73   ar
    72    77    76   ar
    73    64    61    1
    74    31    28    1
    75    60    61    1
    76    16    17   ar
    77    73    72    1
    78    73    74   ar
    79    42    41    1
    80    76    74   ar
    81    13    12    1
    82    26    24   am
    83    61    62    1
    84    12    11    1
    85    41    38    1
    86    28    27    1
    87    28    29    1
    88    62    63    2
    89    25    24    2
    90    24    23    1
    91    27    21   am
    92    30    29    2
    93    38    39    1
    94    38    37    1
    95    40    39    2
    96    21    22    2
    97    21    20    1
    98    23    20    1
    99    19    20    1
