@<TRIPOS>MOLECULE
tmp/2zoeB00.pdb
 94 93 0 0 0
SMALL
GASTEIGER

@<TRIPOS>ATOM
      1  N         35.7970   75.3570   30.8120 N.3   254  ARG254     -0.1245
      2  CA        34.3360   75.4000   30.6100 C.3   254  ARG254      0.1563
      3  C         33.9160   76.6540   29.8340 C.2   254  ARG254      0.2260
      4  O         34.1260   77.7740   30.2960 O.2   254  ARG254     -0.2867
      5  CB        33.6000   75.3380   31.9530 C.3   254  ARG254      0.0307
      6  CG        32.1300   74.9880   31.8390 C.3   254  ARG254      0.0489
      7  CD        31.4220   75.1120   33.1740 C.3   254  ARG254      0.2205
      8  NE        29.9680   75.0520   33.0180 N.pl3 254  ARG254     -0.0865
      9  CZ        29.2310   73.9440   33.1110 C.cat 254  ARG254      0.5346
     10  NH1       29.7820   72.7640   33.3870 N.pl3 254  ARG254      0.1354
     11  NH2       27.9190   74.0220   32.9380 N.pl3 254  ARG254      0.1354
     12  N         31.1490   78.2930   28.9930 N.3   256  ASP256     -0.1239
     13  CA        30.1590   79.2810   29.4420 C.3   256  ASP256      0.1674
     14  C         30.5550   80.0110   30.7380 C.2   256  ASP256      0.2266
     15  O         29.7650   80.7740   31.2850 O.2   256  ASP256     -0.2867
     16  CB        28.7770   78.6260   29.5970 C.3   256  ASP256      0.1410
     17  CG        28.6930   77.6850   30.7890 C.2   256  ASP256      0.3668
     18  OD1       29.7050   77.4980   31.4970 O.co2 256  ASP256     -0.2456
     19  OD2       27.6010   77.1300   31.0210 O.co2 256  ASP256     -0.2456
     20  N         25.2850   84.7540   36.6260 N.3   307  ASP307     -0.1225
     21  CA        24.1990   85.3210   35.8220 C.3   307  ASP307      0.1805
     22  C         22.8350   84.7270   36.1840 C.2   307  ASP307      0.2597
     23  O         22.7490   83.7920   36.9890 O.2   307  ASP307     -0.2718
     24  CB        24.4950   85.1200   34.3290 C.3   307  ASP307      0.1424
     25  CG        25.4960   86.1380   33.7860 C.2   307  ASP307      0.3668
     26  OD1       26.4590   85.7210   33.1010 O.co2 307  ASP307     -0.2456
     27  OD2       25.3220   87.3530   34.0420 O.co2 307  ASP307     -0.2456
     28  N         21.7610   85.3510   35.6510 N.am  308  ASN308     -0.1974
     29  CA        20.3190   84.9920   35.8360 C.3   308  ASN308      0.1688
     30  C         19.8570   84.5620   37.2380 C.2   308  ASN308      0.2292
     31  O         19.3930   83.4380   37.4540 O.2   308  ASN308     -0.2864
     32  CB        19.7570   84.0860   34.7080 C.3   308  ASN308      0.1181
     33  CG        20.5740   82.8210   34.4700 C.2   308  ASN308      0.2629
     34  OD1       20.8290   82.0410   35.3840 O.2   308  ASN308     -0.2716
     35  ND2       20.9580   82.6120   33.2250 N.am  308  ASN308     -0.0877
     36  N         17.4310   77.7680   44.2900 N.3   314  THR314     -0.1203
     37  CA        18.6170   77.1040   43.7360 C.3   314  THR314      0.1994
     38  C         19.2940   77.8890   42.6060 C.2   314  THR314      0.2618
     39  O         18.6370   78.3010   41.6520 O.2   314  THR314     -0.2717
     40  CB        18.2410   75.6750   43.2260 C.3   314  THR314      0.1784
     41  OG1       18.7180   74.6970   44.1560 O.3   314  THR314     -0.2211
     42  CG2       18.8230   75.3840   41.8420 C.3   314  THR314      0.0376
     43  N         20.6070   78.0990   42.7290 N.am  315  HIS315     -0.1961
     44  CA        21.4240   78.6410   41.6330 C.3   315  HIS315      0.1787
     45  C         22.7900   77.9610   41.6020 C.2   315  HIS315      0.2620
     46  O         23.7320   78.4250   42.2450 O.2   315  HIS315     -0.2715
     47  CB        21.6110   80.1570   41.7640 C.3   315  HIS315      0.0785
     48  CG        20.3310   80.9270   41.7700 C.ar  315  HIS315      0.0821
     49  ND1       19.7700   81.4230   42.9270 N.ar  315  HIS315     -0.2267
     50  CD2       19.4940   81.2790   40.7640 C.ar  315  HIS315      0.1154
     51  CE1       18.6450   82.0510   42.6330 C.ar  315  HIS315      0.1986
     52  NE2       18.4550   81.9800   41.3280 N.ar  315  HIS315     -0.2212
     53  N         22.8900   76.8660   40.8490 N.am  316  TYR316     -0.1960
     54  CA        24.1190   76.0700   40.7750 C.3   316  TYR316      0.1771
     55  C         25.0760   76.5690   39.7010 C.2   316  TYR316      0.2620
     56  O         24.6540   77.0370   38.6450 O.2   316  TYR316     -0.2715
     57  CB        23.7960   74.6060   40.4790 C.3   316  TYR316      0.0574
     58  CG        23.0010   73.9220   41.5600 C.ar  316  TYR316     -0.0198
     59  CD1       23.5620   73.6760   42.8110 C.ar  316  TYR316     -0.0009
     60  CD2       21.6900   73.5130   41.3340 C.ar  316  TYR316     -0.0009
     61  CE1       22.8370   73.0450   43.8070 C.ar  316  TYR316      0.0417
     62  CE2       20.9580   72.8800   42.3210 C.ar  316  TYR316      0.0417
     63  CZ        21.5330   72.6490   43.5550 C.ar  316  TYR316      0.1957
     64  OH        20.8010   72.0190   44.5290 O.3   316  TYR316     -0.2866
     65  N         26.3700   76.4460   39.9770 N.am  317  TYR317     -0.1960
     66  CA        27.4180   76.7490   38.9990 C.3   317  TYR317      0.1771
     67  C         28.5450   75.7330   39.1460 C.2   317  TYR317      0.2620
     68  O         29.2240   75.7050   40.1700 O.2   317  TYR317     -0.2715
     69  CB        27.9510   78.1700   39.2050 C.3   317  TYR317      0.0574
     70  CG        26.8690   79.2240   39.2060 C.ar  317  TYR317     -0.0198
     71  CD1       26.4750   79.8420   38.0270 C.ar  317  TYR317     -0.0009
     72  CD2       26.2310   79.5920   40.3870 C.ar  317  TYR317     -0.0009
     73  CE1       25.4800   80.8040   38.0190 C.ar  317  TYR317      0.0417
     74  CE2       25.2250   80.5570   40.3900 C.ar  317  TYR317      0.0417
     75  CZ        24.8600   81.1570   39.2030 C.ar  317  TYR317      0.1957
     76  OH        23.8730   82.1100   39.1940 O.3   317  TYR317     -0.2866
     77  N         28.7140   74.8950   38.1240 N.am  318  THR318     -0.1937
     78  CA        29.6960   73.8230   38.1060 C.3   318  THR318      0.2028
     79  C         30.9560   74.3270   37.4290 C.2   318  THR318      0.2642
     80  O         30.8980   74.8100   36.3000 O.2   318  THR318     -0.2714
     81  CB        29.1810   72.5960   37.3190 C.3   318  THR318      0.1808
     82  OG1       27.9950   72.0820   37.9370 O.3   318  THR318     -0.2208
     83  CG2       30.2360   71.4950   37.2620 C.3   318  THR318      0.0379
     84  N         32.0900   74.2080   38.1240 N.am  319  ARG319     -0.1977
     85  CA        33.3800   74.6730   37.6170 C.3   319  ARG319      0.1597
     86  C         34.4970   73.7210   38.0300 C.2   319  ARG319      0.2287
     87  O         34.4090   73.0620   39.0700 O.2   319  ARG319     -0.2864
     88  CB        33.7070   76.0620   38.1680 C.3   319  ARG319      0.0334
     89  CG        32.7040   77.1530   37.8290 C.3   319  ARG319      0.0492
     90  CD        32.7770   77.5570   36.3770 C.3   319  ARG319      0.2205
     91  NE        31.9750   78.7460   36.1110 N.pl3 319  ARG319     -0.0865
     92  CZ        30.6950   78.7480   35.7360 C.cat 319  ARG319      0.5346
     93  NH1       30.0210   77.6190   35.5530 N.pl3 319  ARG319      0.1354
     94  NH2       30.0840   79.9070   35.5320 N.pl3 319  ARG319      0.1354
@<TRIPOS>BOND
     1    12    13    1
     2    13    16    1
     3    13    14    1
     4    16    17    1
     5     3     4    2
     6     3     2    1
     7     2     1    1
     8     2     5    1
     9    14    15    2
    10    17    19   ar
    11    17    18   ar
    12     6     5    1
    13     6     7    1
    14    11     9    1
    15     8     9    2
    16     8     7    1
    17    26    25   ar
    18     9    10    1
    19    35    33   am
    20    25    27   ar
    21    25    24    1
    22    24    21    1
    23    33    32    1
    24    33    34    2
    25    32    29    1
    26    94    92    1
    27    93    92    1
    28    28    29    1
    29    28    22   am
    30    92    91    2
    31    21    22    1
    32    21    20    1
    33    29    30    1
    34    91    90    1
    35    22    23    2
    36    80    79    2
    37    90    89    1
    38    30    31    2
    39    83    81    1
    40    81    82    1
    41    81    78    1
    42    79    78    1
    43    79    84   am
    44    85    86    1
    45    85    84    1
    46    85    88    1
    47    89    88    1
    48    73    71   ar
    49    73    75   ar
    50    71    70   ar
    51    86    87    2
    52    78    77    1
    53    77    67   am
    54    56    55    2
    55    66    67    1
    56    66    69    1
    57    66    65    1
    58    67    68    2
    59    76    75    1
    60    75    74   ar
    61    69    70    1
    62    70    72   ar
    63    55    65   am
    64    55    54    1
    65    72    74   ar
    66    57    54    1
    67    57    58    1
    68    50    52   ar
    69    50    48   ar
    70    54    53    1
    71    53    45   am
    72    52    51   ar
    73    60    58   ar
    74    60    62   ar
    75    58    59   ar
    76    45    44    1
    77    45    46    2
    78    44    47    1
    79    44    43    1
    80    39    38    2
    81    47    48    1
    82    48    49   ar
    83    42    40    1
    84    62    63   ar
    85    38    43   am
    86    38    37    1
    87    51    49   ar
    88    59    61   ar
    89    40    37    1
    90    40    41    1
    91    63    61   ar
    92    63    64    1
    93    37    36    1
