@<TRIPOS>MOLECULE
tmp/2zoxA01.pdb
 101 96 0 0 0
SMALL
GASTEIGER

@<TRIPOS>ATOM
      1  N        -31.6510   13.2860  -18.5740 N.3   271  GLN271     -0.1245
      2  CA       -31.0810   14.2810  -17.6610 C.3   271  GLN271      0.1566
      3  C        -29.5610   14.1700  -17.6000 C.2   271  GLN271      0.2260
      4  O        -28.8560   15.1610  -17.7850 O.2   271  GLN271     -0.2867
      5  CB       -31.6660   14.1610  -16.2410 C.3   271  GLN271      0.0367
      6  CG       -33.0730   14.7300  -16.0820 C.3   271  GLN271      0.0905
      7  CD       -33.0910   16.2420  -16.0720 C.2   271  GLN271      0.2608
      8  OE1      -32.5680   16.8750  -15.1550 O.2   271  GLN271     -0.2717
      9  NE2      -33.6910   16.8300  -17.0960 N.am  271  GLN271     -0.0878
     10  N        -27.7890   14.9150  -21.0580 N.3   274  SER274     -0.1202
     11  CA       -27.8540   16.3500  -21.3310 C.3   274  SER274      0.2020
     12  C        -26.8860   17.1720  -20.4590 C.2   274  SER274      0.2618
     13  O        -26.1840   18.0550  -20.9680 O.2   274  SER274     -0.2717
     14  CB       -29.2940   16.8380  -21.1790 C.3   274  SER274      0.2103
     15  OG       -29.3470   18.2480  -21.1940 O.3   274  SER274     -0.2182
     16  N        -26.8380   16.8700  -19.1600 N.am  275  MET275     -0.1979
     17  CA       -25.8900   17.5070  -18.2380 C.3   275  MET275      0.1605
     18  C        -24.4410   17.2060  -18.6140 C.2   275  MET275      0.2287
     19  O        -23.6210   18.1190  -18.6770 O.2   275  MET275     -0.2864
     20  CB       -26.1310   17.0540  -16.7900 C.3   275  MET275      0.0413
     21  CG       -27.4110   17.5480  -16.1670 C.3   275  MET275      0.0598
     22  SD       -27.3890   19.3070  -15.7670 S.3   275  MET275     -0.1393
     23  CE       -28.8760   19.3790  -14.7820 C.3   275  MET275      0.0692
     24  N        -23.2470   19.1990  -21.6930 N.3   278  LYS278     -0.1231
     25  CA       -22.9720   20.6010  -21.3770 C.3   278  LYS278      0.1693
     26  C        -21.7500   20.7610  -20.4760 C.2   278  LYS278      0.2591
     27  O        -21.1330   21.8250  -20.4560 O.2   278  LYS278     -0.2718
     28  CB       -24.2030   21.2790  -20.7690 C.3   278  LYS278      0.0285
     29  CG       -25.4050   21.3010  -21.7050 C.3   278  LYS278      0.0035
     30  CD       -26.6230   21.9250  -21.0510 C.3   278  LYS278      0.0206
     31  CE       -27.8590   21.7350  -21.9150 C.3   278  LYS278      0.1093
     32  NZ       -29.0740   22.2460  -21.2140 N.3   278  LYS278     -0.1314
     33  N        -21.3870   19.6990  -19.7540 N.am  279  GLN279     -0.1979
     34  CA       -20.2200   19.7270  -18.8710 C.3   279  GLN279      0.1601
     35  C        -18.9080   19.4440  -19.6090 C.2   279  GLN279      0.2287
     36  O        -17.8280   19.5590  -19.0290 O.2   279  GLN279     -0.2864
     37  CB       -20.3970   18.7450  -17.7050 C.3   279  GLN279      0.0394
     38  CG       -21.3580   19.2320  -16.6130 C.3   279  GLN279      0.0908
     39  CD       -21.9330   18.0990  -15.7680 C.2   279  GLN279      0.2608
     40  OE1      -22.4910   18.3330  -14.6940 O.2   279  GLN279     -0.2717
     41  NE2      -21.7970   16.8710  -16.2500 N.am  279  GLN279     -0.0878
     42  N        -37.8720   21.3980   -6.5090 N.3   316  TYR316     -0.1241
     43  CA       -37.0980   21.5690   -7.7350 C.3   316  TYR316      0.1605
     44  C        -35.9450   22.5320   -7.4910 C.2   316  TYR316      0.2264
     45  O        -36.0730   23.4980   -6.7310 O.2   316  TYR316     -0.2867
     46  CB       -37.9970   22.0690   -8.8720 C.3   316  TYR316      0.0534
     47  CG       -37.2830   22.4520  -10.1640 C.ar  316  TYR316     -0.0201
     48  CD1      -36.5550   21.5120  -10.9000 C.ar  316  TYR316     -0.0009
     49  CD2      -37.3700   23.7530  -10.6680 C.ar  316  TYR316     -0.0009
     50  CE1      -35.9150   21.8650  -12.0880 C.ar  316  TYR316      0.0417
     51  CE2      -36.7360   24.1160  -11.8550 C.ar  316  TYR316      0.0417
     52  CZ       -36.0130   23.1690  -12.5580 C.ar  316  TYR316      0.1957
     53  OH       -35.3900   23.5270  -13.7330 O.3   316  TYR316     -0.2866
     54  N        -33.1070   24.0200  -10.2040 N.3   318  GLU318     -0.1231
     55  CA       -32.4690   24.0530  -11.5090 C.3   318  GLU318      0.1699
     56  C        -30.9530   24.0650  -11.3750 C.2   318  GLU318      0.2592
     57  O        -30.3960   24.8650  -10.6200 O.2   318  GLU318     -0.2718
     58  CB       -32.9400   25.2680  -12.3070 C.3   318  GLU318      0.0402
     59  CG       -32.5460   25.2170  -13.7740 C.3   318  GLU318      0.1161
     60  CD       -33.2620   26.2500  -14.6200 C.2   318  GLU318      0.3649
     61  OE1      -34.0590   27.0420  -14.0670 O.co2 318  GLU318     -0.2457
     62  OE2      -33.0240   26.2630  -15.8480 O.co2 318  GLU318     -0.2457
     63  N        -30.2950   23.1610  -12.0960 N.am  319  ASN319     -0.1960
     64  CA       -28.8410   23.1250  -12.1360 C.3   319  ASN319      0.1819
     65  C        -28.3800   24.0270  -13.2700 C.2   319  ASN319      0.2621
     66  O        -27.9530   23.5620  -14.3310 O.2   319  ASN319     -0.2715
     67  CB       -28.3310   21.6860  -12.3020 C.3   319  ASN319      0.1195
     68  CG       -26.8120   21.5720  -12.2250 C.2   319  ASN319      0.2630
     69  OD1      -26.1250   22.4240  -11.6560 O.2   319  ASN319     -0.2716
     70  ND2      -26.2840   20.4930  -12.7860 N.am  319  ASN319     -0.0877
     71  N        -28.4980   25.3300  -13.0290 N.am  320  LYS320     -0.1963
     72  CA       -28.1870   26.3510  -14.0280 C.3   320  LYS320      0.1728
     73  C        -26.7080   26.3480  -14.4100 C.2   320  LYS320      0.2616
     74  O        -26.3650   26.5160  -15.5760 O.2   320  LYS320     -0.2715
     75  CB       -28.6000   27.7370  -13.5210 C.3   320  LYS320      0.0311
     76  CG       -30.0910   27.8960  -13.2510 C.3   320  LYS320      0.0038
     77  CD       -30.5220   29.3380  -13.4410 C.3   320  LYS320      0.0206
     78  CE       -32.0100   29.5340  -13.1990 C.3   320  LYS320      0.1093
     79  NZ       -32.3180   29.6900  -11.7470 N.3   320  LYS320     -0.1314
     80  N        -25.8480   26.1320  -13.4190 N.am  321  LYS321     -0.1963
     81  CA       -24.4030   26.2360  -13.5950 C.3   321  LYS321      0.1728
     82  C        -23.7580   24.9120  -13.9930 C.2   321  LYS321      0.2616
     83  O        -22.5470   24.8450  -14.2050 O.2   321  LYS321     -0.2715
     84  CB       -23.7660   26.7810  -12.3140 C.3   321  LYS321      0.0311
     85  CG       -24.0800   28.2550  -12.0520 C.3   321  LYS321      0.0038
     86  CD       -24.7210   28.4500  -10.6800 C.3   321  LYS321      0.0206
     87  CE       -26.2030   28.0570  -10.6940 C.3   321  LYS321      0.1093
     88  NZ       -26.7840   27.9010   -9.3320 N.3   321  LYS321     -0.1314
     89  N        -24.5710   23.8650  -14.0980 N.am  322  GLY322     -0.1955
     90  CA       -24.0810   22.5440  -14.4890 C.3   322  GLY322      0.1869
     91  C        -23.1410   21.9140  -13.4790 C.2   322  GLY322      0.2309
     92  O        -22.1920   21.2190  -13.8550 O.2   322  GLY322     -0.2863
     93  N        -31.7700   17.5340  -10.3130 N.3   331  GLU331     -0.1245
     94  CA       -32.2570   18.9140  -10.1330 C.3   331  GLU331      0.1567
     95  C        -33.2830   19.0070   -9.0010 C.2   331  GLU331      0.2260
     96  O        -34.4260   19.4440   -9.2060 O.2   331  GLU331     -0.2867
     97  CB       -32.7960   19.5020  -11.4440 C.3   331  GLU331      0.0388
     98  CG       -31.7050   19.7830  -12.4690 C.3   331  GLU331      0.1160
     99  CD       -32.2380   20.2900  -13.7920 C.2   331  GLU331      0.3649
    100  OE1      -31.9150   21.4380  -14.1690 O.co2 331  GLU331     -0.2457
    101  OE2      -32.9770   19.5450  -14.4670 O.co2 331  GLU331     -0.2457
@<TRIPOS>BOND
     1    31    32    1
     2    31    30    1
     3    29    30    1
     4    29    28    1
     5    24    25    1
     6    25    28    1
     7    25    26    1
     8    11    14    1
     9    11    10    1
    10    11    12    1
    11    15    14    1
    12    13    12    2
    13    26    27    2
    14    26    33   am
    15    12    16   am
    16    33    34    1
    17    35    36    2
    18    35    34    1
    19    16    17    1
    20    34    37    1
    21    19    18    2
    22    18    17    1
    23     1     2    1
    24    17    20    1
    25     4     3    2
    26    37    38    1
    27     2     3    1
    28     2     5    1
    29     9     7   am
    30    20    21    1
    31    38    39    1
    32    41    39   am
    33     5     6    1
    34    21    22    1
    35     6     7    1
    36     7     8    2
    37    62    60   ar
    38    39    40    2
    39    22    23    1
    40    74    73    2
    41    60    61   ar
    42    60    59    1
    43    90    89    1
    44    90    91    1
    45   101    99   ar
    46    73    72    1
    47    73    80   am
    48    66    65    2
    49    83    82    2
    50   100    99   ar
    51    89    82   am
    52    72    75    1
    53    72    71    1
    54    82    81    1
    55    92    91    2
    56    99    98    1
    57    59    58    1
    58    53    52    1
    59    81    80    1
    60    81    84    1
    61    75    76    1
    62    77    76    1
    63    77    78    1
    64    65    71   am
    65    65    64    1
    66    78    79    1
    67    70    68   am
    68    52    50   ar
    69    52    51   ar
    70    98    97    1
    71    84    85    1
    72    58    55    1
    73    67    68    1
    74    67    64    1
    75    68    69    2
    76    64    63    1
    77    63    56   am
    78    50    48   ar
    79    85    86    1
    80    51    49   ar
    81    55    56    1
    82    55    54    1
    83    97    94    1
    84    56    57    2
    85    48    47   ar
    86    87    86    1
    87    87    88    1
    88    49    47   ar
    89    93    94    1
    90    47    46    1
    91    94    95    1
    92    96    95    2
    93    46    43    1
    94    43    44    1
    95    43    42    1
    96    44    45    2
