@<TRIPOS>MOLECULE
tmp/2zozB00.pdb
 157 147 0 0 0
SMALL
GASTEIGER

@<TRIPOS>ATOM
      1  N         45.9220   42.5320   50.9090 N.3    59  LEU59      -0.1245
      2  CA        45.9210   41.5500   49.8300 C.3    59  LEU59       0.1561
      3  C         46.4920   42.1180   48.5370 C.2    59  LEU59       0.2260
      4  O         47.2290   41.4370   47.8300 O.2    59  LEU59      -0.2867
      5  CB        44.4940   41.0520   49.5810 C.3    59  LEU59       0.0270
      6  CG        44.0740   39.7650   50.2950 C.3    59  LEU59       0.0019
      7  CD1       44.5910   39.7420   51.7000 C.3    59  LEU59       0.0001
      8  CD2       42.5580   39.6260   50.2470 C.3    59  LEU59       0.0001
      9  N         50.1470   42.1280   48.9620 N.3    62  ASP62      -0.1225
     10  CA        50.6990   40.7780   48.8700 C.3    62  ASP62       0.1805
     11  C         50.9680   40.4440   47.4060 C.2    62  ASP62       0.2597
     12  O         52.0530   39.9860   47.0460 O.2    62  ASP62      -0.2718
     13  CB        49.7190   39.7190   49.4100 C.3    62  ASP62       0.1424
     14  CG        49.5560   39.7570   50.9220 C.2    62  ASP62       0.3668
     15  OD1       50.4660   40.2460   51.6270 O.co2  62  ASP62      -0.2456
     16  OD2       48.5090   39.2660   51.4060 O.co2  62  ASP62      -0.2456
     17  N         49.9650   40.6680   46.5650 N.am   63  TRP63      -0.1976
     18  CA        50.0900   40.3600   45.1450 C.3    63  TRP63       0.1640
     19  C         51.1590   41.1990   44.4520 C.2    63  TRP63       0.2290
     20  O         51.9560   40.6760   43.6790 O.2    63  TRP63      -0.2864
     21  CB        48.7470   40.5510   44.4390 C.3    63  TRP63       0.0576
     22  CG        48.6490   39.7520   43.1620 C.ar   63  TRP63       0.0006
     23  CD1       49.0680   38.4640   42.9680 C.ar   63  TRP63       0.0946
     24  CD2       48.0710   40.1750   41.9280 C.ar   63  TRP63       0.0152
     25  NE1       48.7870   38.0590   41.6880 N.ar   63  TRP63      -0.2442
     26  CE2       48.1720   39.0890   41.0260 C.ar   63  TRP63       0.0810
     27  CE3       47.4750   41.3650   41.4930 C.ar   63  TRP63       0.0012
     28  CZ2       47.7000   39.1590   39.7150 C.ar   63  TRP63       0.0191
     29  CZ3       47.0030   41.4330   40.1900 C.ar   63  TRP63       0.0001
     30  CH2       47.1190   40.3360   39.3150 C.ar   63  TRP63       0.0015
     31  N         54.4020   39.7830   45.1330 N.3    66  GLU66      -0.1245
     32  CA        54.5840   38.5120   44.4450 C.3    66  GLU66       0.1567
     33  C         54.9660   38.7400   42.9840 C.2    66  GLU66       0.2260
     34  O         55.8570   38.0710   42.4580 O.2    66  GLU66      -0.2867
     35  CB        53.3030   37.6750   44.5250 C.3    66  GLU66       0.0388
     36  CG        53.0970   36.9880   45.8670 C.3    66  GLU66       0.1160
     37  CD        51.6800   36.4690   46.0580 C.2    66  GLU66       0.3649
     38  OE1       51.1230   35.8720   45.1090 O.co2  66  GLU66      -0.2457
     39  OE2       51.1280   36.6550   47.1640 O.co2  66  GLU66      -0.2457
     40  N         51.7100   37.9780   35.8170 N.3    84  VAL84      -0.1245
     41  CA        50.3490   37.7130   36.2790 C.3    84  VAL84       0.1561
     42  C         50.0010   36.2380   36.0800 C.2    84  VAL84       0.2260
     43  O         49.4910   35.5810   36.9890 O.2    84  VAL84      -0.2867
     44  CB        49.3140   38.5690   35.5100 C.3    84  VAL84       0.0252
     45  CG1       47.8850   38.0950   35.8320 C.3    84  VAL84       0.0019
     46  CG2       49.4740   40.0300   35.8870 C.3    84  VAL84       0.0019
     47  N         51.7990   33.7120   38.4540 N.3    87  THR87      -0.1203
     48  CA        51.2700   33.6470   39.8160 C.3    87  THR87       0.1994
     49  C         50.1180   32.6520   39.9650 C.2    87  THR87       0.2617
     50  O         49.7300   32.3160   41.0820 O.2    87  THR87      -0.2717
     51  CB        50.7920   35.0350   40.3160 C.3    87  THR87       0.1784
     52  OG1       49.6630   35.4700   39.5470 O.3    87  THR87      -0.2211
     53  CG2       51.9080   36.0630   40.1870 C.3    87  THR87       0.0376
     54  N         49.5790   32.1820   38.8430 N.am   88  LEU88      -0.1979
     55  CA        48.4700   31.2260   38.8590 C.3    88  LEU88       0.1596
     56  C         48.8860   29.8230   39.3000 C.2    88  LEU88       0.2287
     57  O         48.0310   28.9840   39.5740 O.2    88  LEU88      -0.2864
     58  CB        47.8270   31.1330   37.4680 C.3    88  LEU88       0.0297
     59  CG        46.9380   32.2740   36.9680 C.3    88  LEU88       0.0022
     60  CD1       47.5430   33.6020   37.3230 C.3    88  LEU88       0.0001
     61  CD2       46.7660   32.1600   35.4570 C.3    88  LEU88       0.0001
     62  N         49.7270   28.4940   41.9740 N.3    90  GLU90      -0.1245
     63  CA        49.0420   28.0320   43.1790 C.3    90  GLU90       0.1567
     64  C         47.7200   28.7670   43.3600 C.2    90  GLU90       0.2260
     65  O         47.6160   29.9640   43.0710 O.2    90  GLU90      -0.2867
     66  CB        49.9040   28.2780   44.4180 C.3    90  GLU90       0.0388
     67  CG        51.3110   27.7270   44.3380 C.3    90  GLU90       0.1160
     68  CD        52.1970   28.2720   45.4460 C.2    90  GLU90       0.3649
     69  OE1       52.1860   27.7120   46.5650 O.co2  90  GLU90      -0.2457
     70  OE2       52.8930   29.2790   45.1960 O.co2  90  GLU90      -0.2457
     71  N         44.6560   30.6900   45.1730 N.3    92  VAL92      -0.1245
     72  CA        44.6100   31.6470   46.2730 C.3    92  VAL92       0.1561
     73  C         43.6950   30.9670   47.2750 C.2    92  VAL92       0.2260
     74  O         42.9920   30.0150   46.9240 O.2    92  VAL92      -0.2867
     75  CB        43.9510   32.9870   45.8860 C.3    92  VAL92       0.0252
     76  CG1       44.9180   33.8320   45.0870 C.3    92  VAL92       0.0019
     77  CG2       42.6710   32.7240   45.1040 C.3    92  VAL92       0.0019
     78  N         40.4960   34.7500   50.7780 N.3    96  GLU96      -0.1245
     79  CA        41.0500   35.8440   49.9910 C.3    96  GLU96       0.1567
     80  C         40.2180   36.0970   48.7300 C.2    96  GLU96       0.2260
     81  O         39.9820   37.2470   48.3540 O.2    96  GLU96      -0.2867
     82  CB        42.5130   35.5490   49.6630 C.3    96  GLU96       0.0388
     83  CG        43.4160   35.7710   50.8880 C.3    96  GLU96       0.1160
     84  CD        44.8430   35.2850   50.7010 C.2    96  GLU96       0.3649
     85  OE1       45.2450   35.0130   49.5490 O.co2  96  GLU96      -0.2457
     86  OE2       45.5670   35.1800   51.7170 O.co2  96  GLU96      -0.2457
     87  N         38.0760   39.5590   47.8050 N.3   100  LEU100     -0.1245
     88  CA        38.2300   40.1920   46.4920 C.3   100  LEU100      0.1561
     89  C         36.9060   40.4420   45.7730 C.2   100  LEU100      0.2260
     90  O         36.6720   41.5310   45.2420 O.2   100  LEU100     -0.2867
     91  CB        39.1210   39.3350   45.5850 C.3   100  LEU100      0.0270
     92  CG        39.1650   39.7570   44.1050 C.3   100  LEU100      0.0019
     93  CD1       39.8940   41.0880   43.9610 C.3   100  LEU100      0.0001
     94  CD2       39.8690   38.6930   43.2920 C.3   100  LEU100      0.0001
     95  N         42.6210   48.1270   44.9240 N.3   113  TRP113     -0.1241
     96  CA        43.1170   47.1610   43.9500 C.3   113  TRP113      0.1605
     97  C         43.6630   47.7650   42.6570 C.2   113  TRP113      0.2264
     98  O         44.6200   47.2440   42.0890 O.2   113  TRP113     -0.2867
     99  CB        42.0230   46.1440   43.6060 C.3   113  TRP113      0.0550
    100  CG        41.6830   45.2310   44.7500 C.ar  113  TRP113      0.0003
    101  CD1       40.6600   45.3750   45.6470 C.ar  113  TRP113      0.0946
    102  CD2       42.3850   44.0440   45.1270 C.ar  113  TRP113      0.0152
    103  NE1       40.6840   44.3450   46.5630 N.ar  113  TRP113     -0.2442
    104  CE2       41.7310   43.5140   46.2660 C.ar  113  TRP113      0.0810
    105  CE3       43.5020   43.3750   44.6160 C.ar  113  TRP113      0.0012
    106  CZ2       42.1600   42.3450   46.8990 C.ar  113  TRP113      0.0191
    107  CZ3       43.9300   42.2090   45.2490 C.ar  113  TRP113      0.0001
    108  CH2       43.2570   41.7090   46.3780 C.ar  113  TRP113      0.0015
    109  N         46.7270   46.7010   40.1170 N.3   117  ASN117     -0.1240
    110  CA        46.2980   46.1680   38.8300 C.3   117  ASN117      0.1653
    111  C         46.7170   47.0210   37.6400 C.2   117  ASN117      0.2266
    112  O         47.0400   46.4910   36.5780 O.2   117  ASN117     -0.2867
    113  CB        44.7760   46.0020   38.7970 C.3   117  ASN117      0.1155
    114  CG        44.2690   45.0320   39.8500 C.2   117  ASN117      0.2627
    115  OD1       44.9940   44.1340   40.2870 O.2   117  ASN117     -0.2716
    116  ND2       43.0130   45.1990   40.2490 N.am  117  ASN117     -0.0877
    117  N         47.8830   44.2150   35.2480 N.3   121  ILE121     -0.1245
    118  CA        46.8260   43.6790   34.4000 C.3   121  ILE121      0.1561
    119  C         46.5870   44.5920   33.2000 C.2   121  ILE121      0.2260
    120  O         46.4230   45.7970   33.3540 O.2   121  ILE121     -0.2867
    121  CB        45.5180   43.5060   35.2030 C.3   121  ILE121      0.0252
    122  CG1       45.7230   42.4350   36.2800 C.3   121  ILE121      0.0019
    123  CG2       44.3720   43.1270   34.2730 C.3   121  ILE121      0.0019
    124  CD1       44.5360   42.2550   37.2120 C.3   121  ILE121      0.0001
    125  N         44.3520   37.4750   29.3610 N.3   140  GLN140     -0.1245
    126  CA        43.9100   37.8860   30.6890 C.3   140  GLN140      0.1566
    127  C         42.6560   37.1220   31.1070 C.2   140  GLN140      0.2260
    128  O         42.5350   36.6870   32.2540 O.2   140  GLN140     -0.2867
    129  CB        43.6390   39.3920   30.7200 C.3   140  GLN140      0.0367
    130  CG        43.2750   39.9350   32.1000 C.3   140  GLN140      0.0905
    131  CD        44.3120   39.5880   33.1580 C.2   140  GLN140      0.2608
    132  OE1       45.5100   39.8080   32.9690 O.2   140  GLN140     -0.2717
    133  NE2       43.8530   39.0460   34.2810 N.am  140  GLN140     -0.0878
    134  N         43.5180   33.7260   32.0530 N.3   143  ALA143     -0.1231
    135  CA        44.1620   33.7670   33.3620 C.3   143  ALA143      0.1694
    136  C         43.0850   33.9010   34.4380 C.2   143  ALA143      0.2592
    137  O         43.1530   33.2430   35.4760 O.2   143  ALA143     -0.2718
    138  CB        45.1410   34.9400   33.4390 C.3   143  ALA143      0.0304
    139  N         42.0960   34.7580   34.1870 N.am  144  ASP144     -0.1974
    140  CA        40.9930   34.9530   35.1260 C.3   144  ASP144      0.1709
    141  C         40.3190   33.6010   35.3790 C.2   144  ASP144      0.2293
    142  O         39.9740   33.2600   36.5150 O.2   144  ASP144     -0.2864
    143  CB        39.9570   35.9300   34.5520 C.3   144  ASP144      0.1436
    144  CG        40.4380   37.3750   34.5550 C.2   144  ASP144      0.3671
    145  OD1       41.4680   37.6630   35.1990 O.co2 144  ASP144     -0.2456
    146  OD2       39.7670   38.2260   33.9260 O.co2 144  ASP144     -0.2456
    147  N         42.3930   31.2060   37.4860 N.3   147  PHE147     -0.1241
    148  CA        42.3850   31.7590   38.8360 C.3   147  PHE147      0.1605
    149  C         41.1930   31.2310   39.6470 C.2   147  PHE147      0.2264
    150  O         41.3510   30.8270   40.7990 O.2   147  PHE147     -0.2867
    151  CB        42.3430   33.2930   38.7450 C.3   147  PHE147      0.0534
    152  CG        42.0930   33.9830   40.0560 C.ar  147  PHE147     -0.0203
    153  CD1       42.9990   33.8680   41.1100 C.ar  147  PHE147     -0.0042
    154  CD2       40.9540   34.7610   40.2330 C.ar  147  PHE147     -0.0042
    155  CE1       42.7710   34.5200   42.3200 C.ar  147  PHE147     -0.0003
    156  CE2       40.7160   35.4180   41.4420 C.ar  147  PHE147     -0.0003
    157  CZ        41.6290   35.2960   42.4880 C.ar  147  PHE147     -0.0000
@<TRIPOS>BOND
     1   125   126    1
     2   126   129    1
     3   126   127    1
     4   129   130    1
     5   127   128    2
     6   134   135    1
     7   130   131    1
     8   132   131    2
     9   131   133   am
    10   119   120    2
    11   119   118    1
    12   135   138    1
    13   135   136    1
    14   146   144   ar
    15   139   136   am
    16   139   140    1
    17   123   121    1
    18   118   121    1
    19   118   117    1
    20   136   137    2
    21   143   144    1
    22   143   140    1
    23   144   145   ar
    24   140   141    1
    25   121   122    1
    26   141   142    2
    27    61    59    1
    28    44    45    1
    29    44    46    1
    30    44    41    1
    31    40    41    1
    32    42    41    1
    33    42    43    2
    34   122   124    1
    35   112   111    2
    36    59    60    1
    37    59    58    1
    38    58    55    1
    39   147   148    1
    40   111   110    1
    41    47    48    1
    42   151   148    1
    43   151   152    1
    44   113   110    1
    45   113   114    1
    46   110   109    1
    47   148   149    1
    48    54    55    1
    49    54    49   am
    50    55    56    1
    51    56    57    2
    52    30    28   ar
    53    30    29   ar
    54    52    51    1
    55   149   150    2
    56    28    26   ar
    57    48    49    1
    58    48    51    1
    59   114   116   am
    60   114   115    2
    61    49    50    2
    62   152   154   ar
    63   152   153   ar
    64    53    51    1
    65    29    27   ar
    66   154   156   ar
    67    26    25   ar
    68    26    24   ar
    69   153   155   ar
    70   156   157   ar
    71    27    24   ar
    72    25    23   ar
    73    24    22   ar
    74    62    63    1
    75    98    97    2
    76   155   157   ar
    77    34    33    2
    78    97    96    1
    79    23    22   ar
    80    33    32    1
    81    65    64    2
    82    22    21    1
    83    63    64    1
    84    63    66    1
    85    94    92    1
    86    99    96    1
    87    99   100    1
    88    20    19    2
    89    96    95    1
    90    93    92    1
    91    92    91    1
    92    67    66    1
    93    67    68    1
    94    21    18    1
    95    32    35    1
    96    32    31    1
    97    19    18    1
    98    35    36    1
    99   105   102   ar
   100   105   107   ar
   101   100   102   ar
   102   100   101   ar
   103    76    75    1
   104    77    75    1
   105    38    37   ar
   106   102   104   ar
   107    18    17    1
   108    71    72    1
   109    70    68   ar
   110    90    89    2
   111   107   108   ar
   112    68    69   ar
   113    91    88    1
   114   101   103   ar
   115    89    88    1
   116    36    37    1
   117    75    72    1
   118    37    39   ar
   119   104   103   ar
   120   104   106   ar
   121    72    73    1
   122   108   106   ar
   123    88    87    1
   124    17    11   am
   125    74    73    2
   126    12    11    2
   127    11    10    1
   128     4     3    2
   129    81    80    2
   130     3     2    1
   131    80    79    1
   132    10     9    1
   133    10    13    1
   134    13    14    1
   135    85    84   ar
   136     5     2    1
   137     5     6    1
   138    82    79    1
   139    82    83    1
   140     2     1    1
   141    79    78    1
   142     8     6    1
   143     6     7    1
   144    84    83    1
   145    84    86   ar
   146    14    16   ar
   147    14    15   ar
