@<TRIPOS>MOLECULE
tmp/2zp0B00.pdb
 225 221 0 0 0
SMALL
GASTEIGER

@<TRIPOS>ATOM
      1  N         31.5130   14.2910    4.2480 N.3    41  HIS41      -0.1241
      2  CA        32.0220   13.0350    3.7150 C.3    41  HIS41       0.1621
      3  C         30.9670   12.2170    2.9660 C.2    41  HIS41       0.2264
      4  O         31.2840   11.2240    2.3140 O.2    41  HIS41      -0.2867
      5  CB        32.6610   12.1830    4.8260 C.3    41  HIS41       0.0745
      6  CG        31.6860   11.3720    5.6250 C.ar   41  HIS41       0.0817
      7  ND1       31.0490   11.8620    6.7440 N.ar   41  HIS41      -0.2268
      8  CD2       31.2540   10.0970    5.4740 C.ar   41  HIS41       0.1154
      9  CE1       30.2690   10.9220    7.2500 C.ar   41  HIS41       0.1986
     10  NE2       30.3750    9.8410    6.4980 N.ar   41  HIS41      -0.2212
     11  N         31.9190   12.1470   -0.7710 N.3    44  ASP44      -0.1225
     12  CA        33.2580   11.7500   -1.1850 C.3    44  ASP44       0.1805
     13  C         33.2780   11.0000   -2.5160 C.2    44  ASP44       0.2597
     14  O         34.2040   11.1670   -3.3150 O.2    44  ASP44      -0.2718
     15  CB        33.9140   10.8840   -0.1080 C.3    44  ASP44       0.1424
     16  CG        34.4380   11.6920    1.0590 C.2    44  ASP44       0.3668
     17  OD1       34.3050   12.9340    1.0370 O.co2  44  ASP44      -0.2456
     18  OD2       34.9880   11.0830    2.0030 O.co2  44  ASP44      -0.2456
     19  N         32.2590   10.1830   -2.7610 N.am   45  LYS45      -0.1979
     20  CA        32.1960    9.4030   -3.9940 C.3    45  LYS45       0.1596
     21  C         30.9480    9.5950   -4.8560 C.2    45  LYS45       0.2287
     22  O         30.4950    8.6590   -5.5180 O.2    45  LYS45      -0.2864
     23  CB        32.3580    7.9110   -3.6770 C.3    45  LYS45       0.0298
     24  CG        33.7930    7.4740   -3.4360 C.3    45  LYS45       0.0038
     25  CD        34.1670    7.4700   -1.9690 C.3    45  LYS45       0.0206
     26  CE        33.3870    6.4120   -1.2130 C.3    45  LYS45       0.1093
     27  NZ        33.8650    6.2710    0.1890 N.3    45  LYS45      -0.1314
     28  N         37.7880   20.9790    3.8520 N.3    82  TYR82      -0.1241
     29  CA        37.4780   19.5620    4.0170 C.3    82  TYR82       0.1605
     30  C         38.2620   18.7160    3.0170 C.2    82  TYR82       0.2264
     31  O         38.4410   19.1010    1.8690 O.2    82  TYR82      -0.2867
     32  CB        35.9750   19.3130    3.8370 C.3    82  TYR82       0.0534
     33  CG        35.6190   17.8400    3.7640 C.ar   82  TYR82      -0.0201
     34  CD1       35.6210   17.0400    4.9000 C.ar   82  TYR82      -0.0009
     35  CD2       35.3440   17.2410    2.5460 C.ar   82  TYR82      -0.0009
     36  CE1       35.3660   15.6880    4.8190 C.ar   82  TYR82       0.0417
     37  CE2       35.0870   15.8860    2.4550 C.ar   82  TYR82       0.0417
     38  CZ        35.1010   15.1170    3.5890 C.ar   82  TYR82       0.1957
     39  OH        34.8520   13.7690    3.4770 O.3    82  TYR82      -0.2866
     40  N         37.6890   11.6050    2.3460 N.3    85  GLY85      -0.1210
     41  CA        38.3300   10.4840    2.9980 C.3    85  GLY85       0.1956
     42  C         38.7770   10.7870    4.4080 C.2    85  GLY85       0.2613
     43  O         38.9900    9.8670    5.1880 O.2    85  GLY85      -0.2717
     44  N         38.9120   12.0660    4.7490 N.am   86  THR86      -0.1938
     45  CA        39.3400   12.4440    6.0960 C.3    86  THR86       0.2028
     46  C         38.1780   12.8400    7.0070 C.2    86  THR86       0.2642
     47  O         37.0180   12.6850    6.6400 O.2    86  THR86      -0.2714
     48  CB        40.4010   13.5740    6.0470 C.3    86  THR86       0.1808
     49  OG1       39.8300   14.7650    5.4990 O.3    86  THR86      -0.2208
     50  CG2       41.5640   13.1420    5.1760 C.3    86  THR86       0.0379
     51  N         38.4930   13.3760    8.1830 N.am   87  THR87      -0.1950
     52  CA        37.4670   13.7190    9.1650 C.3    87  THR87       0.1897
     53  C         37.1780   15.1880    9.5190 C.2    87  THR87       0.2313
     54  O         36.0370   15.5470    9.8300 O.2    87  THR87      -0.2863
     55  CB        37.7550   12.9690   10.4960 C.3    87  THR87       0.1794
     56  OG1       39.0830   13.2760   10.9390 O.3    87  THR87      -0.2208
     57  CG2       37.6240   11.4620   10.3100 C.3    87  THR87       0.0378
     58  N         33.7770   18.0050    8.7030 N.3    90  ASP90      -0.1239
     59  CA        32.7610   17.1540    8.0970 C.3    90  ASP90       0.1674
     60  C         31.4140   17.8840    8.1160 C.2    90  ASP90       0.2266
     61  O         30.5570   17.5840    8.9400 O.2    90  ASP90      -0.2867
     62  CB        32.6600   15.8300    8.8590 C.3    90  ASP90       0.1410
     63  CG        32.0470   14.7360    8.0280 C.2    90  ASP90       0.3668
     64  OD1       31.5100   15.0580    6.9540 O.co2  90  ASP90      -0.2456
     65  OD2       32.0930   13.5570    8.4380 O.co2  90  ASP90      -0.2456
     66  N         23.0170    1.9360   10.4820 N.3   134  GLN134     -0.1245
     67  CA        23.1810    0.5820   10.9890 C.3   134  GLN134      0.1566
     68  C         22.7070    0.4570   12.4290 C.2   134  GLN134      0.2260
     69  O         22.9700    1.3230   13.2560 O.2   134  GLN134     -0.2867
     70  CB        24.6490    0.1620   10.9190 C.3   134  GLN134      0.0367
     71  CG        25.3160    0.3030    9.5560 C.3   134  GLN134      0.0905
     72  CD        25.3830    1.7460    9.0710 C.2   134  GLN134      0.2608
     73  OE1       25.5300    2.6810    9.8650 O.2   134  GLN134     -0.2717
     74  NE2       25.2890    1.9290    7.7560 N.am  134  GLN134     -0.0878
     75  N         27.1970   -2.6640   14.5110 N.3   137  ASP137     -0.1225
     76  CA        28.4780   -2.4000   13.8650 C.3   137  ASP137      0.1805
     77  C         28.5250   -3.3320   12.6560 C.2   137  ASP137      0.2597
     78  O         28.3320   -4.5400   12.8010 O.2   137  ASP137     -0.2718
     79  CB        29.6210   -2.7450   14.8220 C.3   137  ASP137      0.1424
     80  CG        30.9410   -2.1250   14.4140 C.2   137  ASP137      0.3668
     81  OD1       31.2800   -2.1530   13.2140 O.co2 137  ASP137     -0.2456
     82  OD2       31.6490   -1.6190   15.3060 O.co2 137  ASP137     -0.2456
     83  N         28.7710   -2.7800   11.4710 N.am  138  ARG138     -0.1979
     84  CA        28.8260   -3.5950   10.2550 C.3   138  ARG138      0.1597
     85  C         27.4750   -4.2530    9.9790 C.2   138  ARG138      0.2287
     86  O         27.3680   -5.1280    9.1210 O.2   138  ARG138     -0.2864
     87  CB        29.8980   -4.6860   10.3860 C.3   138  ARG138      0.0334
     88  CG        31.3280   -4.1710   10.3770 C.3   138  ARG138      0.0492
     89  CD        32.3170   -5.2590   10.7920 C.3   138  ARG138      0.2205
     90  NE        32.2290   -6.4590    9.9590 N.pl3 138  ARG138     -0.0865
     91  CZ        33.0340   -7.5140   10.0800 C.cat 138  ARG138      0.5346
     92  NH1       33.9920   -7.5190   11.0000 N.pl3 138  ARG138      0.1354
     93  NH2       32.8770   -8.5690    9.2890 N.pl3 138  ARG138      0.1354
     94  N         44.8190    7.2370   14.8430 N.3   168  SER168     -0.1203
     95  CA        43.4720    7.6150   14.4280 C.3   168  SER168      0.2005
     96  C         43.4600    9.1300   14.2370 C.2   168  SER168      0.2460
     97  O         44.4260    9.8100   14.5750 O.2   168  SER168     -0.2732
     98  CB        42.4590    7.2310   15.5030 C.3   168  SER168      0.2103
     99  OG        42.6330    8.0120   16.6750 O.3   168  SER168     -0.2182
    100  N         42.3640    9.6800   13.6970 N.am  169  PRO169     -0.2728
    101  CA        42.2690   11.1260   13.4770 C.3   169  PRO169      0.1401
    102  C         42.2250   11.9160   14.7810 C.2   169  PRO169      0.2269
    103  O         41.7550   11.4180   15.8050 O.2   169  PRO169     -0.2865
    104  CB        40.9710   11.2690   12.6820 C.3   169  PRO169      0.0296
    105  CG        40.8480    9.9540   11.9860 C.3   169  PRO169      0.0237
    106  CD        41.2300    8.9880   13.0690 C.3   169  PRO169      0.0939
    107  N         25.3890    4.3100   20.3840 N.3   186  ASP186     -0.1225
    108  CA        26.1600    5.2620   19.5930 C.3   186  ASP186      0.1805
    109  C         25.4700    5.3970   18.2350 C.2   186  ASP186      0.2598
    110  O         24.5740    4.6200   17.9170 O.2   186  ASP186     -0.2718
    111  CB        27.5970    4.7150   19.4490 C.3   186  ASP186      0.1424
    112  CG        28.4870    5.5580   18.5350 C.2   186  ASP186      0.3668
    113  OD1       28.3000    6.7900   18.4480 O.co2 186  ASP186     -0.2456
    114  OD2       29.4000    4.9700   17.9160 O.co2 186  ASP186     -0.2456
    115  N         25.8410    6.4020   17.4550 N.am  187  SER187     -0.1938
    116  CA        25.2580    6.5360   16.1300 C.3   187  SER187      0.2055
    117  C         26.1210    5.6540   15.2220 C.2   187  SER187      0.2643
    118  O         26.9950    4.9300   15.7080 O.2   187  SER187     -0.2714
    119  CB        25.2670    7.9960   15.6730 C.3   187  SER187      0.2130
    120  OG        26.5050    8.6150   15.9550 O.3   187  SER187     -0.2179
    121  N         25.9080    5.6890   13.9160 N.am  188  CYS188     -0.1953
    122  CA        26.7110    4.8190   13.0720 C.3   188  CYS188      0.1843
    123  C         26.8070    5.2830   11.6370 C.2   188  CYS188      0.2625
    124  O         26.0820    6.1710   11.2070 O.2   188  CYS188     -0.2714
    125  CB        26.1390    3.4010   13.1400 C.3   188  CYS188      0.0997
    126  SG        27.2390    2.0500   12.6340 S.3   188  CYS188     -0.0797
    127  N         27.7200    4.6570   10.9070 N.am  189  LYS189     -0.1977
    128  CA        27.9770    4.9600    9.5020 C.3   189  LYS189      0.1596
    129  C         26.7930    5.5100    8.6950 C.2   189  LYS189      0.2287
    130  O         26.8500    6.6260    8.1800 O.2   189  LYS189     -0.2864
    131  CB        28.5230    3.7110    8.8080 C.3   189  LYS189      0.0298
    132  CG        29.0820    3.9760    7.4290 C.3   189  LYS189      0.0038
    133  CD        29.5270    2.6870    6.7950 C.3   189  LYS189      0.0206
    134  CE        30.0460    2.9090    5.3910 C.3   189  LYS189      0.1093
    135  NZ        30.3060    1.5860    4.7470 N.3   189  LYS189     -0.1314
    136  N         25.5120    9.1730    9.2660 N.3   192  SER192     -0.1217
    137  CA        26.2980   10.3310    8.8790 C.3   192  SER192      0.1889
    138  C         25.4360   11.4770    8.3510 C.2   192  SER192      0.2288
    139  O         24.5310   11.2660    7.5360 O.2   192  SER192     -0.2866
    140  CB        27.3010    9.9370    7.8000 C.3   192  SER192      0.2089
    141  OG        28.0840    8.8430    8.2200 O.3   192  SER192     -0.2183
    142  N         26.2780   13.9030   12.7740 N.3   210  VAL210     -0.1231
    143  CA        26.8300   12.5610   12.8690 C.3   210  VAL210      0.1692
    144  C         27.9690   12.5690   11.8700 C.2   210  VAL210      0.2593
    145  O         27.7460   12.7000   10.6650 O.2   210  VAL210     -0.2718
    146  CB        25.7880   11.4910   12.4760 C.3   210  VAL210      0.0266
    147  CG1       26.3760   10.1030   12.6320 C.3   210  VAL210      0.0020
    148  CG2       24.5550   11.6230   13.3480 C.3   210  VAL210      0.0020
    149  N         29.1920   12.4440   12.3790 N.am  211  SER211     -0.1938
    150  CA        30.3750   12.4860   11.5270 C.3   211  SER211      0.2055
    151  C         31.2160   11.2130   11.4380 C.2   211  SER211      0.2643
    152  O         31.2090   10.5310   10.4180 O.2   211  SER211     -0.2714
    153  CB        31.2680   13.6460   11.9630 C.3   211  SER211      0.2130
    154  OG        32.4030   13.7380   11.1340 O.3   211  SER211     -0.2179
    155  N         31.9520   10.8980   12.4940 N.am  212  TRP212     -0.1959
    156  CA        32.7990    9.7200   12.4670 C.3   212  TRP212      0.1771
    157  C         32.9950    9.0600   13.8200 C.2   212  TRP212      0.2620
    158  O         32.4050    9.4600   14.8220 O.2   212  TRP212     -0.2715
    159  CB        34.1670   10.0800   11.9020 C.3   212  TRP212      0.0590
    160  CG        34.9700   11.0140   12.7710 C.ar  212  TRP212      0.0006
    161  CD1       34.8140   12.3630   12.8880 C.ar  212  TRP212      0.0946
    162  CD2       36.1050   10.6740   13.5770 C.ar  212  TRP212      0.0152
    163  NE1       35.7840   12.8860   13.7040 N.ar  212  TRP212     -0.2442
    164  CE2       36.5910   11.8710   14.1400 C.ar  212  TRP212      0.0810
    165  CE3       36.7600    9.4730   13.8730 C.ar  212  TRP212      0.0012
    166  CZ2       37.7060   11.9030   14.9820 C.ar  212  TRP212      0.0191
    167  CZ3       37.8650    9.5060   14.7080 C.ar  212  TRP212      0.0001
    168  CH2       38.3280   10.7120   15.2520 C.ar  212  TRP212      0.0015
    169  N         33.8460    8.0420   13.8330 N.am  213  GLY213     -0.1940
    170  CA        34.1300    7.3330   15.0580 C.3   213  GLY213      0.2014
    171  C         34.7300    5.9690   14.7940 C.2   213  GLY213      0.2639
    172  O         34.6440    5.4460   13.6820 O.2   213  GLY213     -0.2714
    173  N         35.3450    5.4030   15.8260 N.am  214  GLN214     -0.1963
    174  CA        35.9650    4.0890   15.7630 C.3   214  GLN214      0.1733
    175  C         34.8550    3.0440   15.7530 C.2   214  GLN214      0.2617
    176  O         34.3510    2.6550   16.8030 O.2   214  GLN214     -0.2715
    177  CB        36.8590    3.8980   16.9910 C.3   214  GLN214      0.0408
    178  CG        37.6490    2.6140   17.0210 C.3   214  GLN214      0.0908
    179  CD        38.6490    2.5380   15.8960 C.2   214  GLN214      0.2608
    180  OE1       39.4450    3.4660   15.6960 O.2   214  GLN214     -0.2717
    181  NE2       38.6230    1.4330   15.1520 N.am  214  GLN214     -0.0878
    182  N         34.4740    2.5870   14.5680 N.am  215  GLY215     -0.1940
    183  CA        33.4110    1.6060   14.4800 C.3   215  GLY215      0.2014
    184  C         32.1420    2.2170   15.0400 C.2   215  GLY215      0.2639
    185  O         31.9690    3.4380   14.9860 O.2   215  GLY215     -0.2714
    186  N         31.2590    1.3790   15.5800 N.am  216  CYS216     -0.1967
    187  CA        29.9980    1.8400   16.1570 C.3   216  CYS216      0.1712
    188  C         29.8010    1.2180   17.5330 C.2   216  CYS216      0.2296
    189  O         29.6430    0.0040   17.6640 O.2   216  CYS216     -0.2864
    190  CB        28.8300    1.4930   15.2190 C.3   216  CYS216      0.0983
    191  SG        28.9720    2.3840   13.6330 S.3   216  CYS216     -0.0798
    192  N         34.0470    6.7410   21.6140 N.3   222  PHE222     -0.1227
    193  CA        32.8560    7.5780   21.5460 C.3   222  PHE222      0.1736
    194  C         32.5200    7.9550   20.1050 C.2   222  PHE222      0.2596
    195  O         33.3160    7.7490   19.1930 O.2   222  PHE222     -0.2718
    196  CB        33.0710    8.8690   22.3610 C.3   222  PHE222      0.0547
    197  CG        33.1980    8.6490   23.8440 C.ar  222  PHE222     -0.0202
    198  CD1       32.0770    8.6600   24.6600 C.ar  222  PHE222     -0.0042
    199  CD2       34.4380    8.4000   24.4190 C.ar  222  PHE222     -0.0042
    200  CE1       32.1880    8.4220   26.0250 C.ar  222  PHE222     -0.0003
    201  CE2       34.5560    8.1590   25.7830 C.ar  222  PHE222     -0.0003
    202  CZ        33.4250    8.1710   26.5870 C.ar  222  PHE222     -0.0000
    203  N         31.3290    8.5040   19.9070 N.am  223  GLY223     -0.1942
    204  CA        30.9370    8.9470   18.5820 C.3   223  GLY223      0.2014
    205  C         31.4310   10.3720   18.4230 C.2   223  GLY223      0.2639
    206  O         31.4740   11.1210   19.3990 O.2   223  GLY223     -0.2714
    207  N         31.8320   10.7580   17.2170 N.am  224  VAL224     -0.1963
    208  CA        32.3200   12.1160   17.0100 C.3   224  VAL224      0.1727
    209  C         31.3940   12.9020   16.0900 C.2   224  VAL224      0.2616
    210  O         30.9990   12.4340   15.0230 O.2   224  VAL224     -0.2715
    211  CB        33.7330   12.1340   16.4070 C.3   224  VAL224      0.0290
    212  CG1       34.2810   13.5610   16.4510 C.3   224  VAL224      0.0023
    213  CG2       34.6410   11.1830   17.1610 C.3   224  VAL224      0.0023
    214  N         31.0600   14.1140   16.5120 N.am  225  TYR225     -0.1974
    215  CA        30.1600   14.9720   15.7600 C.3   225  TYR225      0.1639
    216  C         30.8260   16.2750   15.3460 C.2   225  TYR225      0.2290
    217  O         31.7290   16.7600   16.0160 O.2   225  TYR225     -0.2864
    218  CB        28.9270   15.2760   16.6160 C.3   225  TYR225      0.0560
    219  CG        28.1570   14.0420   17.0030 C.ar  225  TYR225     -0.0198
    220  CD1       28.6190   13.1970   18.0020 C.ar  225  TYR225     -0.0009
    221  CD2       27.0090   13.6710   16.3050 C.ar  225  TYR225     -0.0009
    222  CE1       27.9690   12.0130   18.2900 C.ar  225  TYR225      0.0417
    223  CE2       26.3570   12.4900   16.5860 C.ar  225  TYR225      0.0417
    224  CZ        26.8430   11.6630   17.5770 C.ar  225  TYR225      0.1957
    225  OH        26.2070   10.4710   17.8400 O.3   225  TYR225     -0.2866
@<TRIPOS>BOND
     1    22    21    2
     2    21    20    1
     3    20    23    1
     4    20    19    1
     5    23    24    1
     6    24    25    1
     7    14    13    2
     8    19    13   am
     9    13    12    1
    10    25    26    1
    11    26    27    1
    12    12    11    1
    13    12    15    1
    14    15    16    1
    15    17    16   ar
    16    16    18   ar
    17    31    30    2
    18     4     3    2
    19    40    41    1
    20    37    35   ar
    21    37    38   ar
    22    35    33   ar
    23     3     2    1
    24    41    42    1
    25    30    29    1
    26    39    38    1
    27    38    36   ar
    28     2     1    1
    29     2     5    1
    30    33    32    1
    31    33    34   ar
    32    32    29    1
    33    28    29    1
    34    42    44   am
    35    42    43    2
    36   135   134    1
    37    44    45    1
    38    36    34   ar
    39     5     6    1
    40    50    48    1
    41   134   133    1
    42     8     6   ar
    43     8    10   ar
    44    49    48    1
    45     6     7   ar
    46    48    45    1
    47    45    46    1
    48    10     9   ar
    49    47    46    2
    50     7     9   ar
    51   133   132    1
    52    64    63   ar
    53    46    51   am
    54   132   131    1
    55   139   138    2
    56    74    72   am
    57   140   141    1
    58   140   137    1
    59    63    65   ar
    60    63    62    1
    61    59    60    1
    62    59    58    1
    63    59    62    1
    64    60    61    2
    65   130   129    2
    66    51    52    1
    67   138   137    1
    68   129   128    1
    69   131   128    1
    70   137   136    1
    71    72    71    1
    72    72    73    2
    73    86    85    2
    74    52    53    1
    75    52    55    1
    76    93    91    1
    77   128   127    1
    78    53    54    2
    79    71    70    1
    80    90    91    2
    81    90    89    1
    82    85    84    1
    83    91    92    1
    84    84    87    1
    85    84    83    1
    86    57    55    1
    87    88    87    1
    88    88    89    1
    89   152   151    2
    90    66    67    1
    91    55    56    1
    92   145   144    2
    93   127   123   am
    94    70    67    1
    95    67    68    1
    96   154   153    1
    97   124   123    2
    98   151   150    1
    99   151   155   am
   100    83    77   am
   101   150   153    1
   102   150   149    1
   103   123   122    1
   104   144   149   am
   105   144   143    1
   106   159   156    1
   107   159   160    1
   108   105   104    1
   109   105   106    1
   110    68    69    2
   111   156   155    1
   112   156   157    1
   113   146   147    1
   114   146   143    1
   115   146   148    1
   116   126   125    1
   117   126   191    1
   118    77    78    2
   119    77    76    1
   120   104   101    1
   121   160   161   ar
   122   160   162   ar
   123   142   143    1
   124   161   163   ar
   125   106   100    1
   126   122   125    1
   127   122   121    1
   128    81    80   ar
   129   101   100    1
   130   101   102    1
   131   162   165   ar
   132   162   164   ar
   133   191   190    1
   134   172   171    2
   135   100    96   am
   136   163   164   ar
   137   157   169   am
   138   157   158    2
   139   169   170    1
   140    76    75    1
   141    76    79    1
   142   165   167   ar
   143   121   117   am
   144   164   166   ar
   145    96    95    1
   146    96    97    2
   147    80    79    1
   148    80    82   ar
   149    95    94    1
   150    95    98    1
   151   183   182    1
   152   183   184    1
   153   182   175   am
   154   167   168   ar
   155   102   103    2
   156   171   170    1
   157   171   173   am
   158   166   168   ar
   159   185   184    2
   160   210   209    2
   161   184   186   am
   162   181   179   am
   163   190   187    1
   164   117   118    2
   165   117   116    1
   166   216   215    1
   167   216   217    2
   168    98    99    1
   169   186   187    1
   170   119   120    1
   171   119   116    1
   172   180   179    2
   173   175   174    1
   174   175   176    2
   175   215   214    1
   176   215   218    1
   177   174   173    1
   178   174   177    1
   179   179   178    1
   180   209   214   am
   181   209   208    1
   182   116   115    1
   183   187   188    1
   184   221   223   ar
   185   221   219   ar
   186   211   212    1
   187   211   208    1
   188   211   213    1
   189   223   224   ar
   190   218   219    1
   191   177   178    1
   192   219   220   ar
   193   208   207    1
   194   207   205   am
   195   115   109   am
   196   188   189    2
   197   224   225    1
   198   224   222   ar
   199   114   112   ar
   200   110   109    2
   201   220   222   ar
   202   109   108    1
   203   205   204    1
   204   205   206    2
   205   113   112   ar
   206   112   111    1
   207   204   203    1
   208   195   194    2
   209   111   108    1
   210   108   107    1
   211   203   194   am
   212   194   193    1
   213   193   192    1
   214   193   196    1
   215   196   197    1
   216   197   199   ar
   217   197   198   ar
   218   199   201   ar
   219   198   200   ar
   220   201   202   ar
   221   200   202   ar
