@<TRIPOS>MOLECULE
tmp/2zp7C00.pdb
 119 111 0 0 0
SMALL
GASTEIGER

@<TRIPOS>ATOM
      1  N        -31.2250   -4.2150   89.4100 N.3    95  GLY95      -0.1210
      2  CA       -31.3580   -4.2220   90.8690 C.3    95  GLY95       0.1956
      3  C        -32.2520   -3.1080   91.3980 C.2    95  GLY95       0.2613
      4  O        -32.4630   -2.0830   90.7330 O.2    95  GLY95      -0.2717
      5  N        -32.8090   -3.3190   92.5910 N.am   96  SER96      -0.1938
      6  CA       -33.5400   -2.2540   93.2690 C.3    96  SER96       0.2055
      7  C        -32.5770   -1.1440   93.6740 C.2    96  SER96       0.2642
      8  O        -32.9990   -0.0140   93.8950 O.2    96  SER96      -0.2714
      9  CB       -34.3640   -2.7700   94.4650 C.3    96  SER96       0.2130
     10  OG       -35.6210   -3.3060   94.0380 O.3    96  SER96      -0.2179
     11  N        -31.2790   -1.4450   93.7160 N.am   97  GLN97      -0.1976
     12  CA       -30.2800   -0.3900   93.9500 C.3    97  GLN97       0.1601
     13  C        -30.3310    0.6740   92.8630 C.2    97  GLN97       0.2287
     14  O        -30.2390    1.8720   93.1410 O.2    97  GLN97      -0.2864
     15  CB       -28.8540   -0.9340   94.1050 C.3    97  GLN97       0.0394
     16  CG       -27.8120    0.1290   94.5820 C.3    97  GLN97       0.0908
     17  CD       -28.1280    0.7330   95.9570 C.2    97  GLN97       0.2608
     18  OE1      -27.8940    1.9300   96.2080 O.2    97  GLN97      -0.2717
     19  NE2      -28.6630   -0.0810   96.8440 N.am   97  GLN97      -0.0878
     20  N        -33.4120    3.0060   93.4110 N.3   100  LEU100     -0.1245
     21  CA       -33.0430    3.9910   94.4490 C.3   100  LEU100      0.1561
     22  C        -32.1450    5.1240   93.9470 C.2   100  LEU100      0.2260
     23  O        -32.3390    6.2900   94.2980 O.2   100  LEU100     -0.2867
     24  CB       -32.3390    3.3010   95.6320 C.3   100  LEU100      0.0270
     25  CG       -33.1770    2.2800   96.3790 C.3   100  LEU100      0.0019
     26  CD1      -32.2700    1.4330   97.3020 C.3   100  LEU100      0.0001
     27  CD2      -34.3130    2.9870   97.1560 C.3   100  LEU100      0.0001
     28  N        -32.4080    1.1700  105.3860 N.3   121  TYR121     -0.1241
     29  CA       -31.5670    0.4210  104.4550 C.3   121  TYR121      0.1605
     30  C        -30.3930    1.2760  103.9950 C.2   121  TYR121      0.2264
     31  O        -30.5540    2.3940  103.4950 O.2   121  TYR121     -0.2867
     32  CB       -32.3920   -0.0890  103.2720 C.3   121  TYR121      0.0534
     33  CG       -31.5870   -0.7870  102.2090 C.ar  121  TYR121     -0.0201
     34  CD1      -30.6080   -1.7340  102.5460 C.ar  121  TYR121     -0.0009
     35  CD2      -31.8270   -0.5250  100.8650 C.ar  121  TYR121     -0.0009
     36  CE1      -29.8640   -2.3720  101.5640 C.ar  121  TYR121      0.0417
     37  CE2      -31.1040   -1.1330   99.8900 C.ar  121  TYR121      0.0417
     38  CZ       -30.1320   -2.0690  100.2340 C.ar  121  TYR121      0.1957
     39  OH       -29.4230   -2.6690   99.2280 O.3   121  TYR121     -0.2866
     40  N        -39.9460    0.6890  104.2100 N.3   165  ILE165     -0.1245
     41  CA       -39.8950   -0.7650  103.9710 C.3   165  ILE165      0.1561
     42  C        -40.8990   -1.4670  104.9160 C.2   165  ILE165      0.2260
     43  O        -40.5070   -2.0370  105.9270 O.2   165  ILE165     -0.2867
     44  CB       -38.4720   -1.3610  104.2030 C.3   165  ILE165      0.0252
     45  CG1      -37.3930   -0.5060  103.5310 C.3   165  ILE165      0.0019
     46  CG2      -38.3980   -2.8000  103.6810 C.3   165  ILE165      0.0019
     47  CD1      -36.0600   -0.5920  104.1810 C.3   165  ILE165      0.0001
     48  N        -35.1900   -3.7680  106.3070 N.3   170  ASN170     -0.1240
     49  CA       -33.7540   -3.7820  106.4470 C.3   170  ASN170      0.1653
     50  C        -33.3480   -2.4930  107.1990 C.2   170  ASN170      0.2266
     51  O        -33.5900   -1.4100  106.6990 O.2   170  ASN170     -0.2867
     52  CB       -33.1120   -3.8080  105.0570 C.3   170  ASN170      0.1155
     53  CG       -31.6420   -4.1620  105.0940 C.2   170  ASN170      0.2627
     54  OD1      -30.9840   -4.0360  106.1250 O.2   170  ASN170     -0.2716
     55  ND2      -31.1120   -4.5980  103.9590 N.am  170  ASN170     -0.0877
     56  N        -40.1990    0.1980   99.3330 N.3   198  ASP198     -0.1239
     57  CA       -39.2360   -0.8310   98.9990 C.3   198  ASP198      0.1674
     58  C        -39.7310   -2.1600   99.5260 C.2   198  ASP198      0.2266
     59  O        -39.7650   -2.3640  100.7330 O.2   198  ASP198     -0.2867
     60  CB       -37.8870   -0.5060   99.6280 C.3   198  ASP198      0.1410
     61  CG       -36.7490   -1.3330   99.0570 C.2   198  ASP198      0.3668
     62  OD1      -37.0070   -2.4770   98.6170 O.co2 198  ASP198     -0.2456
     63  OD2      -35.5990   -0.8300   99.0600 O.co2 198  ASP198     -0.2456
     64  N        -38.5400   -5.4540   98.7110 N.3   200  ALA200     -0.1231
     65  CA       -37.5840   -6.5750   98.5120 C.3   200  ALA200      0.1694
     66  C        -37.9770   -7.9060   99.1700 C.2   200  ALA200      0.2592
     67  O        -37.7970   -8.9860   98.5820 O.2   200  ALA200     -0.2718
     68  CB       -36.1870   -6.1600   99.0020 C.3   200  ALA200      0.0304
     69  N        -38.4970   -7.8310  100.3930 N.am  201  TYR201     -0.1976
     70  CA       -38.8450   -9.0300  101.1840 C.3   201  TYR201      0.1639
     71  C        -40.3120   -9.3940  101.1450 C.2   201  TYR201      0.2290
     72  O        -40.7920  -10.1620  101.9710 O.2   201  TYR201     -0.2864
     73  CB       -38.3880   -8.8350  102.6200 C.3   201  TYR201      0.0560
     74  CG       -36.9420   -8.4830  102.6570 C.ar  201  TYR201     -0.0198
     75  CD1      -35.9670   -9.4670  102.4670 C.ar  201  TYR201     -0.0009
     76  CD2      -36.5400   -7.1510  102.8080 C.ar  201  TYR201     -0.0009
     77  CE1      -34.6250   -9.1420  102.4590 C.ar  201  TYR201      0.0417
     78  CE2      -35.1990   -6.8090  102.7890 C.ar  201  TYR201      0.0417
     79  CZ       -34.2400   -7.8090  102.6130 C.ar  201  TYR201      0.1957
     80  OH       -32.8970   -7.4650  102.6280 O.3   201  TYR201     -0.2866
     81  N        -38.0410   -6.6330   93.5950 N.3   231  SER231     -0.1217
     82  CA       -36.7810   -7.1900   93.1500 C.3   231  SER231      0.1889
     83  C        -36.8630   -8.7100   93.0640 C.2   231  SER231      0.2288
     84  O        -37.6510   -9.3380   93.7800 O.2   231  SER231     -0.2866
     85  CB       -35.6730   -6.7930   94.1080 C.3   231  SER231      0.2089
     86  OG       -34.4470   -7.2560   93.6050 O.3   231  SER231     -0.2183
     87  N        -34.1090  -10.3360   93.5030 N.3   233  SER233     -0.1202
     88  CA       -32.8870  -10.6090   94.2350 C.3   233  SER233      0.2020
     89  C        -33.1100  -11.5430   95.4070 C.2   233  SER233      0.2618
     90  O        -32.3010  -12.4350   95.6340 O.2   233  SER233     -0.2717
     91  CB       -32.2510   -9.3070   94.7180 C.3   233  SER233      0.2103
     92  OG       -31.6350   -8.6340   93.6210 O.3   233  SER233     -0.2182
     93  N        -34.2090  -11.3560   96.1380 N.am  234  LYS234     -0.1979
     94  CA       -34.4540  -12.1680   97.3380 C.3   234  LYS234      0.1596
     95  C        -35.2830  -13.4230   97.0800 C.2   234  LYS234      0.2287
     96  O        -35.3920  -14.2690   97.9510 O.2   234  LYS234     -0.2864
     97  CB       -35.0620  -11.3350   98.5020 C.3   234  LYS234      0.0298
     98  CG       -34.2360  -10.1040   98.9440 C.3   234  LYS234      0.0038
     99  CD       -32.7310  -10.3360   98.7660 C.3   234  LYS234      0.0206
    100  CE       -31.8770   -9.3560   99.5420 C.3   234  LYS234      0.1093
    101  NZ       -32.2110   -7.9630   99.1650 N.3   234  LYS234     -0.1314
    102  N        -29.8590  -12.7050   93.5210 N.3   238  PRO238     -0.2116
    103  CA       -29.3670  -11.3260   93.6050 C.3   238  PRO238      0.1372
    104  C        -28.3050  -11.0020   92.5390 C.2   238  PRO238      0.2244
    105  O        -28.2260   -9.8710   92.0750 O.2   238  PRO238     -0.2868
    106  CB       -28.7550  -11.2750   95.0050 C.3   238  PRO238      0.0268
    107  CG       -28.3510  -12.6720   95.2950 C.3   238  PRO238      0.0207
    108  CD       -29.3730  -13.5360   94.6410 C.3   238  PRO238      0.0892
    109  N        -29.0020   -9.2510   88.9480 N.3   241  ARG241     -0.1245
    110  CA       -29.2990   -7.8140   89.0130 C.3   241  ARG241      0.1563
    111  C        -30.5550   -7.4290   88.2320 C.2   241  ARG241      0.2260
    112  O        -30.5010   -6.5650   87.3490 O.2   241  ARG241     -0.2867
    113  CB       -28.0990   -6.9550   88.5840 C.3   241  ARG241      0.0307
    114  CG       -26.7490   -7.3060   89.2080 C.3   241  ARG241      0.0489
    115  CD       -26.7030   -7.2340   90.7150 C.3   241  ARG241      0.2205
    116  NE       -27.1190   -5.9390   91.2510 N.pl3 241  ARG241     -0.0865
    117  CZ       -28.0730   -5.7960   92.1580 C.cat 241  ARG241      0.5346
    118  NH1      -28.6900   -6.8790   92.6380 N.pl3 241  ARG241      0.1354
    119  NH2      -28.3860   -4.5820   92.6130 N.pl3 241  ARG241      0.1354
@<TRIPOS>BOND
     1   112   111    2
     2   111   110    1
     3   113   110    1
     4   113   114    1
     5   109   110    1
     6   114   115    1
     7     1     2    1
     8   115   116    1
     9     4     3    2
    10     2     3    1
    11   116   117    2
    12     3     5   am
    13   105   104    2
    14   117   119    1
    15   117   118    1
    16   104   103    1
    17     5     6    1
    18    13    14    2
    19    13    12    1
    20    83    82    1
    21    83    84    2
    22    82    81    1
    23    82    85    1
    24     6     7    1
    25     6     9    1
    26    20    21    1
    27    87    88    1
    28   102   103    1
    29   102   108    1
    30    86    85    1
    31   103   106    1
    32    92    91    1
    33     7    11   am
    34     7     8    2
    35    11    12    1
    36    22    23    2
    37    22    21    1
    38    12    15    1
    39    10     9    1
    40    15    16    1
    41    88    91    1
    42    88    89    1
    43    21    24    1
    44    16    17    1
    45   108   107    1
    46   106   107    1
    47    89    90    2
    48    89    93   am
    49    24    25    1
    50    17    18    2
    51    17    19   am
    52    93    94    1
    53    25    27    1
    54    25    26    1
    55    95    94    1
    56    95    96    2
    57    94    97    1
    58    97    98    1
    59    65    64    1
    60    65    68    1
    61    65    66    1
    62    67    66    2
    63    62    61   ar
    64    99    98    1
    65    99   100    1
    66    57    56    1
    67    57    58    1
    68    57    60    1
    69    61    63   ar
    70    61    60    1
    71   101   100    1
    72    66    69   am
    73    39    38    1
    74    58    59    2
    75    37    38   ar
    76    37    35   ar
    77    38    36   ar
    78    69    70    1
    79    35    33   ar
    80    71    70    1
    81    71    72    2
    82    70    73    1
    83    36    34   ar
    84    33    34   ar
    85    33    32    1
    86    77    75   ar
    87    77    79   ar
    88    75    74   ar
    89    79    80    1
    90    79    78   ar
    91    73    74    1
    92    74    76   ar
    93    78    76   ar
    94    32    29    1
    95    31    30    2
    96    45    47    1
    97    45    44    1
    98    46    44    1
    99    55    53   am
   100    41    44    1
   101    41    40    1
   102    41    42    1
   103    30    29    1
   104    29    28    1
   105    42    43    2
   106    52    53    1
   107    52    49    1
   108    53    54    2
   109    48    49    1
   110    49    50    1
   111    51    50    2
