@<TRIPOS>MOLECULE
tmp/2zp7A01.pdb
 116 108 0 0 0
SMALL
GASTEIGER

@<TRIPOS>ATOM
      1  N        -31.6870    8.5240   73.0790 N.3    18  ILE18      -0.1245
      2  CA       -31.1880    7.1760   73.4030 C.3    18  ILE18       0.1561
      3  C        -32.3250    6.1410   73.3850 C.2    18  ILE18       0.2260
      4  O        -32.2780    5.1910   72.6070 O.2    18  ILE18      -0.2867
      5  CB       -30.4100    7.1370   74.7640 C.3    18  ILE18       0.0252
      6  CG1      -28.9510    7.5770   74.5760 C.3    18  ILE18       0.0019
      7  CG2      -30.4550    5.7250   75.4130 C.3    18  ILE18       0.0019
      8  CD1      -28.7540    9.0590   74.2660 C.3    18  ILE18       0.0001
      9  N        -33.9900    5.7010   69.9840 N.3    21  LEU21      -0.1231
     10  CA       -33.0850    4.9100   69.1580 C.3    21  LEU21       0.1693
     11  C        -33.1290    3.4460   69.5580 C.2    21  LEU21       0.2591
     12  O        -33.4010    2.6030   68.7170 O.2    21  LEU21      -0.2718
     13  CB       -31.6490    5.4430   69.2010 C.3    21  LEU21       0.0284
     14  CG       -31.3280    6.7290   68.4280 C.3    21  LEU21       0.0019
     15  CD1      -29.8380    7.0170   68.5030 C.3    21  LEU21       0.0001
     16  CD2      -31.8050    6.6940   66.9720 C.3    21  LEU21       0.0001
     17  N        -32.8920    3.1540   70.8380 N.am   22  LEU22      -0.1980
     18  CA       -32.9870    1.7860   71.3820 C.3    22  LEU22       0.1596
     19  C        -34.1660    0.9480   70.8260 C.2    22  LEU22       0.2287
     20  O        -33.9870   -0.2330   70.4990 O.2    22  LEU22      -0.2864
     21  CB       -32.9860    1.8170   72.9210 C.3    22  LEU22       0.0297
     22  CG       -31.7950    1.2510   73.7320 C.3    22  LEU22       0.0022
     23  CD1      -30.5110    1.0000   72.9280 C.3    22  LEU22       0.0001
     24  CD2      -31.4970    2.0570   74.9970 C.3    22  LEU22       0.0001
     25  N        -35.2770    0.3750   67.9880 N.3    24  LEU24      -0.1245
     26  CA       -34.9440    0.4130   66.5520 C.3    24  LEU24       0.1561
     27  C        -34.9320   -0.9580   65.8680 C.2    24  LEU24       0.2260
     28  O        -35.1660   -1.0480   64.6540 O.2    24  LEU24      -0.2867
     29  CB       -33.6290    1.1650   66.2920 C.3    24  LEU24       0.0270
     30  CG       -32.2440    0.5410   66.5340 C.3    24  LEU24       0.0019
     31  CD1      -31.2010    1.6080   66.3040 C.3    24  LEU24       0.0001
     32  CD2      -32.0720   -0.0680   67.9320 C.3    24  LEU24       0.0001
     33  N        -28.1780    4.2140   65.3000 N.3    35  GLY35      -0.1210
     34  CA       -27.7200    3.3120   66.3630 C.3    35  GLY35       0.1956
     35  C        -26.5630    2.4230   65.9340 C.2    35  GLY35       0.2612
     36  O        -26.6640    1.6620   64.9640 O.2    35  GLY35      -0.2717
     37  N        -25.4610    2.5130   66.6660 N.am   36  GLY36      -0.1942
     38  CA       -24.2820    1.7090   66.3870 C.3    36  GLY36       0.2014
     39  C        -24.4460    0.2790   66.8700 C.2    36  GLY36       0.2638
     40  O        -23.6630   -0.1990   67.6870 O.2    36  GLY36      -0.2714
     41  N        -25.4620   -0.4010   66.3450 N.am   37  LEU37      -0.1977
     42  CA       -25.7990   -1.7590   66.7540 C.3    37  LEU37       0.1596
     43  C        -24.8650   -2.7550   66.0730 C.2    37  LEU37       0.2287
     44  O        -24.9010   -2.9040   64.8520 O.2    37  LEU37      -0.2864
     45  CB       -27.2800   -2.0650   66.4640 C.3    37  LEU37       0.0297
     46  CG       -28.2840   -1.9310   67.6250 C.3    37  LEU37       0.0022
     47  CD1      -28.3960   -0.4990   68.1540 C.3    37  LEU37       0.0001
     48  CD2      -29.6550   -2.4620   67.2170 C.3    37  LEU37       0.0001
     49  N        -21.5680    3.2940   79.4670 N.3    97  GLN97      -0.1245
     50  CA       -22.5700    4.2710   79.8460 C.3    97  GLN97       0.1566
     51  C        -22.6140    4.4990   81.3640 C.2    97  GLN97       0.2260
     52  O        -22.7020    5.6400   81.8050 O.2    97  GLN97      -0.2867
     53  CB       -23.9440    3.8770   79.3160 C.3    97  GLN97       0.0367
     54  CG       -25.0310    4.9210   79.5890 C.3    97  GLN97       0.0905
     55  CD       -24.7140    6.2350   78.9370 C.2    97  GLN97       0.2608
     56  OE1      -24.6590    7.2940   79.5950 O.2    97  GLN97      -0.2717
     57  NE2      -24.4860    6.1880   77.6500 N.am   97  GLN97      -0.0878
     58  N        -20.3300   12.3830   71.8600 N.3   121  TYR121     -0.1227
     59  CA       -21.2010   11.2460   72.0890 C.3   121  TYR121      0.1736
     60  C        -22.4350   11.5960   72.9430 C.2   121  TYR121      0.2595
     61  O        -22.3320   12.1290   74.0420 O.2   121  TYR121     -0.2718
     62  CB       -20.3970   10.0410   72.6200 C.3   121  TYR121      0.0548
     63  CG       -21.2520    8.8850   73.0620 C.ar  121  TYR121     -0.0200
     64  CD1      -22.2340    8.3610   72.2260 C.ar  121  TYR121     -0.0009
     65  CD2      -21.0720    8.3060   74.3220 C.ar  121  TYR121     -0.0009
     66  CE1      -23.0270    7.3050   72.6320 C.ar  121  TYR121      0.0417
     67  CE2      -21.8590    7.2500   74.7410 C.ar  121  TYR121      0.0417
     68  CZ       -22.8340    6.7470   73.8900 C.ar  121  TYR121      0.1957
     69  OH       -23.6330    5.7020   74.3010 O.3   121  TYR121     -0.2866
     70  N        -23.5950   11.2890   72.3820 N.am  122  MET122     -0.1979
     71  CA       -24.9100   11.5500   72.9620 C.3   122  MET122      0.1605
     72  C        -25.0980   10.9580   74.3590 C.2   122  MET122      0.2287
     73  O        -25.6570   11.5920   75.2430 O.2   122  MET122     -0.2864
     74  CB       -25.9570   10.9480   72.0300 C.3   122  MET122      0.0413
     75  CG       -27.2560   11.6980   71.9270 C.3   122  MET122      0.0598
     76  SD       -28.2170   10.9790   70.5570 S.3   122  MET122     -0.1393
     77  CE       -27.6340    9.2450   70.6020 C.3   122  MET122      0.0692
     78  N        -17.5060    8.9880   68.1640 N.3   170  ASN170     -0.1240
     79  CA       -18.9510    8.9730   67.9680 C.3   170  ASN170      0.1653
     80  C        -19.3950   10.4330   68.1040 C.2   170  ASN170      0.2266
     81  O        -19.2220   11.0240   69.1800 O.2   170  ASN170     -0.2867
     82  CB       -19.6150    8.0900   69.0460 C.3   170  ASN170      0.1155
     83  CG       -21.0550    7.7010   68.7120 C.2   170  ASN170      0.2627
     84  OD1      -21.6830    8.3020   67.8600 O.2   170  ASN170     -0.2716
     85  ND2      -21.5820    6.6710   69.4000 N.am  170  ASN170     -0.0877
     86  N        -18.8440   -3.1900   71.5080 N.3   234  LYS234     -0.1245
     87  CA       -18.6430   -3.1080   70.0530 C.3   234  LYS234      0.1561
     88  C        -17.7620   -4.2610   69.5630 C.2   234  LYS234      0.2260
     89  O        -17.5470   -4.4490   68.3610 O.2   234  LYS234     -0.2867
     90  CB       -18.0160   -1.7420   69.6690 C.3   234  LYS234      0.0271
     91  CG       -18.8220   -0.4910   70.1290 C.3   234  LYS234      0.0035
     92  CD       -20.3380   -0.7330   70.0890 C.3   234  LYS234      0.0206
     93  CE       -21.1670    0.5610   70.0490 C.3   234  LYS234      0.1093
     94  NZ       -20.9930    1.6260   71.2210 N.3   234  LYS234     -0.1314
     95  N        -19.1990    4.6180   62.0430 N.3   322  PHE322     -0.1241
     96  CA       -20.0020    5.7660   61.5990 C.3   322  PHE322      0.1605
     97  C        -19.4190    6.5450   60.4270 C.2   322  PHE322      0.2264
     98  O        -18.2010    6.7200   60.3170 O.2   322  PHE322     -0.2867
     99  CB       -20.2950    6.7360   62.7680 C.3   322  PHE322      0.0534
    100  CG       -20.8080    6.0560   64.0070 C.ar  322  PHE322     -0.0203
    101  CD1      -22.0660    5.4700   64.0290 C.ar  322  PHE322     -0.0042
    102  CD2      -20.0290    6.0000   65.1510 C.ar  322  PHE322     -0.0042
    103  CE1      -22.5410    4.8310   65.1790 C.ar  322  PHE322     -0.0003
    104  CE2      -20.4980    5.3610   66.3030 C.ar  322  PHE322     -0.0003
    105  CZ       -21.7560    4.7790   66.3110 C.ar  322  PHE322     -0.0000
    106  N        -25.6840   11.3340   61.4650 N.3   364  ARG364     -0.1245
    107  CA       -24.7970   10.1830   61.6490 C.3   364  ARG364      0.1563
    108  C        -25.3870    8.9570   60.9550 C.2   364  ARG364      0.2260
    109  O        -26.5530    8.6380   61.1530 O.2   364  ARG364     -0.2867
    110  CB       -24.5650    9.9030   63.1460 C.3   364  ARG364      0.0307
    111  CG       -23.5450    8.8180   63.4220 C.3   364  ARG364      0.0489
    112  CD       -23.5520    8.4020   64.9120 C.3   364  ARG364      0.2205
    113  NE       -24.6980    7.5540   65.2050 N.pl3 364  ARG364     -0.0865
    114  CZ       -24.9400    6.9900   66.3760 C.cat 364  ARG364      0.5346
    115  NH1      -24.1130    7.1840   67.3930 N.pl3 364  ARG364      0.1354
    116  NH2      -26.0150    6.2340   66.5230 N.pl3 364  ARG364      0.1354
@<TRIPOS>BOND
     1    98    97    2
     2    97    96    1
     3   108   109    2
     4   108   107    1
     5   106   107    1
     6    96    95    1
     7    96    99    1
     8   107   110    1
     9    99   100    1
    10   110   111    1
    11   111   112    1
    12   100   101   ar
    13   100   102   ar
    14   101   103   ar
    15    28    27    2
    16    44    43    2
    17   112   113    1
    18    36    35    2
    19   102   104   ar
    20   103   105   ar
    21   113   114    2
    22    33    34    1
    23    27    26    1
    24    35    34    1
    25    35    37   am
    26    43    42    1
    27    29    30    1
    28    29    26    1
    29   104   105   ar
    30    31    30    1
    31    41    42    1
    32    41    39   am
    33   114   116    1
    34   114   115    1
    35    38    37    1
    36    38    39    1
    37    45    42    1
    38    45    46    1
    39    30    32    1
    40    26    25    1
    41    39    40    2
    42    16    14    1
    43    48    46    1
    44    46    47    1
    45    84    83    2
    46    79    80    1
    47    79    78    1
    48    79    82    1
    49    80    81    2
    50    89    88    2
    51    14    15    1
    52    14    13    1
    53    83    82    1
    54    83    85   am
    55    12    11    2
    56    10    13    1
    57    10    11    1
    58    10     9    1
    59    11    17   am
    60    88    87    1
    61    90    87    1
    62    90    91    1
    63    93    92    1
    64    93    94    1
    65    87    86    1
    66    92    91    1
    67    20    19    2
    68    76    77    1
    69    76    75    1
    70    19    18    1
    71    17    18    1
    72    18    21    1
    73    58    59    1
    74    75    74    1
    75    74    71    1
    76    59    62    1
    77    59    60    1
    78    64    66   ar
    79    64    63   ar
    80    70    60   am
    81    70    71    1
    82     4     3    2
    83    62    63    1
    84    66    68   ar
    85    21    22    1
    86    23    22    1
    87    60    61    2
    88    71    72    1
    89    63    65   ar
    90     1     2    1
    91     3     2    1
    92     2     5    1
    93    22    24    1
    94    68    69    1
    95    68    67   ar
    96     8     6    1
    97    65    67   ar
    98    72    73    2
    99     6     5    1
   100     5     7    1
   101    57    55   am
   102    55    54    1
   103    55    56    2
   104    53    54    1
   105    53    50    1
   106    49    50    1
   107    50    51    1
   108    51    52    2
