@<TRIPOS>MOLECULE
tmp/2zpaA01.pdb
 155 146 0 0 0
SMALL
GASTEIGER

@<TRIPOS>ATOM
      1  N         43.8620   74.9800  103.2700 N.3    57  GLY57      -0.1225
      2  CA        43.1060   76.1870  103.2890 C.3    57  GLY57       0.1811
      3  C         42.7900   76.5480  101.8450 C.2    57  GLY57       0.2280
      4  O         42.5350   77.7050  101.5510 O.2    57  GLY57      -0.2866
      5  N         35.5050   89.1270  102.6410 N.3   159  ALA159     -0.1231
      6  CA        36.1060   89.5560  103.8840 C.3   159  ALA159      0.1694
      7  C         37.5520   89.9340  103.6050 C.2   159  ALA159      0.2593
      8  O         38.2530   89.2660  102.8410 O.2   159  ALA159     -0.2718
      9  CB        36.0340   88.4400  104.9110 C.3   159  ALA159      0.0304
     10  N         37.9910   91.0100  104.2470 N.am  160  THR160     -0.1939
     11  CA        39.3360   91.5450  104.0800 C.3   160  THR160      0.2028
     12  C         40.3430   90.8510  104.9920 C.2   160  THR160      0.2643
     13  O         41.4330   90.4670  104.5650 O.2   160  THR160     -0.2714
     14  CB        39.3400   93.0350  104.4200 C.3   160  THR160      0.1808
     15  OG1       39.5400   93.2020  105.8300 O.3   160  THR160     -0.2208
     16  CG2       37.9860   93.6510  104.0660 C.3   160  THR160      0.0379
     17  N         39.9620   90.7020  106.2550 N.am  161  GLY161     -0.1939
     18  CA        40.8280   90.0840  107.2400 C.3   161  GLY161      0.2014
     19  C         40.3910   90.6080  108.5890 C.2   161  GLY161      0.2638
     20  O         40.6350   89.9910  109.6230 O.2   161  GLY161     -0.2714
     21  N         39.7530   91.7730  108.5700 N.am  162  ALA162     -0.1977
     22  CA        39.2440   92.3840  109.7840 C.3   162  ALA162      0.1597
     23  C         38.0610   91.5200  110.1990 C.2   162  ALA162      0.2287
     24  O         37.3190   91.0310  109.3490 O.2   162  ALA162     -0.2864
     25  CB        38.7800   93.8000  109.5010 C.3   162  ALA162      0.0319
     26  N         34.5960   90.1020  110.7490 N.3   164  GLN164     -0.1245
     27  CA        33.2880   90.4650  110.2210 C.3   164  GLN164      0.1566
     28  C         32.3860   90.8640  111.3940 C.2   164  GLN164      0.2260
     29  O         32.7110   90.5990  112.5490 O.2   164  GLN164     -0.2867
     30  CB        32.6940   89.2850  109.4520 C.3   164  GLN164      0.0367
     31  CG        33.3980   89.0030  108.1290 C.3   164  GLN164      0.0905
     32  CD        33.1280   90.0770  107.0820 C.2   164  GLN164      0.2608
     33  OE1       31.9910   90.2560  106.6370 O.2   164  GLN164     -0.2717
     34  NE2       34.1750   90.8000  106.6900 N.am  164  GLN164     -0.0878
     35  N         31.6750   88.3480  114.0880 N.3   167  GLN167     -0.1245
     36  CA        32.9000   88.0050  114.7880 C.3   167  GLN167      0.1566
     37  C         33.2610   89.1240  115.7620 C.2   167  GLN167      0.2260
     38  O         33.5060   88.8740  116.9450 O.2   167  GLN167     -0.2867
     39  CB        34.0480   87.7900  113.8020 C.3   167  GLN167      0.0367
     40  CG        33.7730   86.7480  112.7250 C.3   167  GLN167      0.0905
     41  CD        34.9920   86.4670  111.8610 C.2   167  GLN167      0.2608
     42  OE1       35.6130   87.3890  111.3400 O.2   167  GLN167     -0.2717
     43  NE2       35.3370   85.1870  111.7030 N.am  167  GLN167     -0.0878
     44  N         29.9410   74.7580  109.4490 N.3   186  ARG186     -0.1231
     45  CA        31.2660   74.9440  108.8830 C.3   186  ARG186      0.1694
     46  C         31.3030   76.2020  107.9960 C.2   186  ARG186      0.2593
     47  O         30.2970   76.5650  107.3830 O.2   186  ARG186     -0.2718
     48  CB        31.6610   73.7050  108.0680 C.3   186  ARG186      0.0321
     49  CG        32.8770   73.9140  107.1710 C.3   186  ARG186      0.0489
     50  CD        33.4360   72.5860  106.6690 C.3   186  ARG186      0.2205
     51  NE        33.6000   71.6390  107.7690 N.pl3 186  ARG186     -0.0865
     52  CZ        34.5020   70.9280  108.4440 C.cat 186  ARG186      0.5346
     53  NH1       35.7920   71.2370  108.3790 N.pl3 186  ARG186      0.1354
     54  NH2       34.1090   69.9100  109.1990 N.pl3 186  ARG186      0.1354
     55  N         32.4630   76.8630  107.9550 N.am  187  GLY187     -0.1942
     56  CA        32.6200   78.0620  107.1480 C.3   187  GLY187      0.2014
     57  C         32.0400   79.3540  107.7270 C.2   187  GLY187      0.2639
     58  O         31.7820   80.3010  106.9850 O.2   187  GLY187     -0.2714
     59  N         31.8210   79.4000  109.0380 N.am  188  ARG188     -0.1963
     60  CA        31.2860   80.6020  109.6680 C.3   188  ARG188      0.1729
     61  C         32.3520   81.4260  110.3780 C.2   188  ARG188      0.2617
     62  O         32.0380   82.4000  111.0610 O.2   188  ARG188     -0.2715
     63  CB        30.1780   80.2350  110.6530 C.3   188  ARG188      0.0348
     64  CG        28.7960   80.1970  110.0180 C.3   188  ARG188      0.0492
     65  CD        28.7060   79.2420  108.8080 C.3   188  ARG188      0.2205
     66  NE        27.3790   79.3010  108.1990 N.pl3 188  ARG188     -0.0865
     67  CZ        27.0320   78.6780  107.0750 C.cat 188  ARG188      0.5346
     68  NH1       27.9170   77.9310  106.4200 N.pl3 188  ARG188      0.1354
     69  NH2       25.8020   78.8180  106.5910 N.pl3 188  ARG188      0.1354
     70  N         33.6090   81.0220  110.2420 N.am  189  GLY189     -0.1940
     71  CA        34.6790   81.7750  110.8640 C.3   189  GLY189      0.2014
     72  C         34.9690   81.5220  112.3280 C.2   189  GLY189      0.2639
     73  O         35.4730   82.4120  113.0210 O.2   189  GLY189     -0.2714
     74  N         34.6710   80.3200  112.8090 N.am  190  LYS190     -0.1963
     75  CA        34.9230   79.9790  114.2060 C.3   190  LYS190      0.1728
     76  C         36.4270   79.9370  114.5050 C.2   190  LYS190      0.2617
     77  O         36.8860   80.5320  115.4850 O.2   190  LYS190     -0.2715
     78  CB        34.2950   78.6180  114.5580 C.3   190  LYS190      0.0311
     79  CG        32.7720   78.5620  114.4320 C.3   190  LYS190      0.0038
     80  CD        32.1970   77.2130  114.9060 C.3   190  LYS190      0.0206
     81  CE        32.7800   76.0250  114.1230 C.3   190  LYS190      0.1093
     82  NZ        32.3610   76.0020  112.6920 N.3   190  LYS190     -0.1314
     83  N         37.1910   79.2310  113.6730 N.am  191  SER191     -0.1936
     84  CA        38.6360   79.1200  113.8860 C.3   191  SER191      0.2055
     85  C         39.3340   80.4800  113.7680 C.2   191  SER191      0.2642
     86  O         40.2920   80.7580  114.4810 O.2   191  SER191     -0.2714
     87  CB        39.2540   78.1310  112.8890 C.3   191  SER191      0.2130
     88  OG        38.6650   76.8400  113.0000 O.3   191  SER191     -0.2179
     89  N         38.8520   81.3260  112.8650 N.am  192  ALA192     -0.1977
     90  CA        39.4240   82.6520  112.6830 C.3   192  ALA192      0.1597
     91  C         39.0810   83.5000  113.9150 C.2   192  ALA192      0.2287
     92  O         39.9080   84.2530  114.4120 O.2   192  ALA192     -0.2864
     93  CB        38.8630   83.2880  111.4230 C.3   192  ALA192      0.0319
     94  N         41.6250   85.4080  116.0400 N.3   196  GLN196     -0.1245
     95  CA        41.5120   86.8410  116.1710 C.3   196  GLN196      0.1566
     96  C         41.5480   87.1770  117.6480 C.2   196  GLN196      0.2260
     97  O         42.0640   88.2190  118.0520 O.2   196  GLN196     -0.2867
     98  CB        40.2050   87.3340  115.5520 C.3   196  GLN196      0.0367
     99  CG        40.0730   87.0380  114.0650 C.3   196  GLN196      0.0905
    100  CD        38.6890   87.3720  113.5270 C.2   196  GLN196      0.2608
    101  OE1       37.7060   87.4200  114.2820 O.2   196  GLN196     -0.2717
    102  NE2       38.5970   87.5890  112.2120 N.am  196  GLN196     -0.0878
    103  N         44.0180   77.8840  109.7570 N.3   217  VAL217     -0.1245
    104  CA        43.2820   79.1400  109.7200 C.3   217  VAL217      0.1561
    105  C         43.3980   79.8380  111.0730 C.2   217  VAL217      0.2260
    106  O         43.5570   81.0580  111.1450 O.2   217  VAL217     -0.2867
    107  CB        41.7910   78.9310  109.4000 C.3   217  VAL217      0.0252
    108  CG1       41.0500   80.2370  109.5690 C.3   217  VAL217      0.0019
    109  CG2       41.6260   78.3920  107.9870 C.3   217  VAL217      0.0019
    110  N         46.8460   81.3610  111.3620 N.3   220  GLN220     -0.1231
    111  CA        46.9350   82.5200  110.4880 C.3   220  GLN220      0.1698
    112  C         46.4610   83.7930  111.1900 C.2   220  GLN220      0.2592
    113  O         47.1190   84.8280  111.1140 O.2   220  GLN220     -0.2718
    114  CB        46.0960   82.2960  109.2220 C.3   220  GLN220      0.0381
    115  CG        46.0630   83.4840  108.2590 C.3   220  GLN220      0.0905
    116  CD        44.9790   83.3460  107.1960 C.2   220  GLN220      0.2608
    117  OE1       44.8000   82.2730  106.6180 O.2   220  GLN220     -0.2717
    118  NE2       44.2560   84.4340  106.9280 N.am  220  GLN220     -0.0878
    119  N         45.3180   83.7250  111.8680 N.am  221  PHE221     -0.1976
    120  CA        44.8040   84.9080  112.5570 C.3   221  PHE221      0.1639
    121  C         45.4860   85.1470  113.9040 C.2   221  PHE221      0.2290
    122  O         45.4430   86.2540  114.4410 O.2   221  PHE221     -0.2864
    123  CB        43.2800   84.8180  112.7470 C.3   221  PHE221      0.0560
    124  CG        42.5030   84.9150  111.4630 C.ar  221  PHE221     -0.0200
    125  CD1       42.3460   83.7990  110.6410 C.ar  221  PHE221     -0.0042
    126  CD2       41.9690   86.1390  111.0430 C.ar  221  PHE221     -0.0042
    127  CE1       41.6690   83.9020  109.4110 C.ar  221  PHE221     -0.0003
    128  CE2       41.2940   86.2470  109.8160 C.ar  221  PHE221     -0.0003
    129  CZ        41.1470   85.1290  109.0040 C.ar  221  PHE221     -0.0000
    130  N         32.1330   72.6750  115.1170 N.3   272  THR272     -0.1218
    131  CA        31.2410   72.8790  113.9980 C.3   272  THR272      0.1862
    132  C         30.0580   71.9390  114.1890 C.2   272  THR272      0.2287
    133  O         30.2020   70.8280  114.6960 O.2   272  THR272     -0.2866
    134  CB        31.9250   72.6220  112.6540 C.3   272  THR272      0.1770
    135  OG1       31.7940   71.2440  112.3110 O.3   272  THR272     -0.2211
    136  CG2       33.3860   72.9860  112.7300 C.3   272  THR272      0.0375
    137  N         31.2780   83.0680  105.8300 N.3   303  ILE303     -0.1231
    138  CA        32.2040   84.1360  105.4740 C.3   303  ILE303      0.1692
    139  C         32.7190   84.2170  104.0360 C.2   303  ILE303      0.2591
    140  O         33.0470   85.3110  103.5640 O.2   303  ILE303     -0.2718
    141  CB        33.4260   84.1700  106.4530 C.3   303  ILE303      0.0266
    142  CG1       34.7280   83.8620  105.7110 C.3   303  ILE303      0.0019
    143  CG2       33.2130   83.2140  107.5950 C.3   303  ILE303      0.0020
    144  CD1       35.4350   85.0950  105.1720 C.3   303  ILE303      0.0001
    145  N         32.8100   83.0880  103.3430 N.am  304  ARG304     -0.1980
    146  CA        33.2990   83.1050  101.9730 C.3   304  ARG304      0.1597
    147  C         32.2110   83.0990  100.8940 C.2   304  ARG304      0.2287
    148  O         32.5020   82.9970   99.7030 O.2   304  ARG304     -0.2864
    149  CB        34.2900   81.9650  101.7640 C.3   304  ARG304      0.0334
    150  CG        35.6010   82.2520  102.4680 C.3   304  ARG304      0.0492
    151  CD        36.7160   81.3150  102.0560 C.3   304  ARG304      0.2205
    152  NE        38.0180   81.9110  102.3470 N.pl3 304  ARG304     -0.0865
    153  CZ        39.1830   81.3320  102.0740 C.cat 304  ARG304      0.5346
    154  NH1       39.2090   80.1280  101.4960 N.pl3 304  ARG304      0.1354
    155  NH2       40.3200   81.9490  102.3910 N.pl3 304  ARG304      0.1354
@<TRIPOS>BOND
     1   148   147    2
     2   147   146    1
     3   154   153    1
     4     4     3    2
     5   149   146    1
     6   149   150    1
     7     3     2    1
     8   146   145    1
     9   151   152    1
    10   151   150    1
    11   153   152    2
    12   153   155    1
    13     5     6    1
    14     8     7    2
    15     1     2    1
    16   145   139   am
    17   140   139    2
    18     7     6    1
    19     7    10   am
    20     6     9    1
    21   139   138    1
    22    16    14    1
    23    11    10    1
    24    11    14    1
    25    11    12    1
    26    14    15    1
    27    13    12    2
    28    12    17   am
    29   144   142    1
    30   138   137    1
    31   138   141    1
    32   142   141    1
    33    17    18    1
    34    68    67    1
    35   141   143    1
    36    69    67    1
    37   117   116    2
    38    33    32    2
    39    50    49    1
    40    50    51    1
    41    34    32   am
    42   118   116   am
    43    58    57    2
    44    67    66    2
    45    32    31    1
    46    56    57    1
    47    56    55    1
    48    49    48    1
    49   116   115    1
    50    18    19    1
    51    47    46    2
    52    57    59   am
    53    51    52    2
    54    55    46   am
    55   109   107    1
    56    46    45    1
    57    48    45    1
    58    31    30    1
    59    66    65    1
    60   115   114    1
    61    53    52    1
    62    52    54    1
    63    21    19   am
    64    21    22    1
    65    19    20    2
    66    65    64    1
    67    45    44    1
    68   129   127   ar
    69   129   128   ar
    70    59    60    1
    71   114   111    1
    72    24    23    2
    73   107   108    1
    74   107   104    1
    75   127   125   ar
    76    30    27    1
    77    25    22    1
    78    60    61    1
    79    60    63    1
    80   104   103    1
    81   104   105    1
    82    22    23    1
    83   128   126   ar
    84    64    63    1
    85    27    26    1
    86    27    28    1
    87    70    61   am
    88    70    71    1
    89    61    62    2
    90   111   112    1
    91   111   110    1
    92   125   124   ar
    93    71    72    1
    94   126   124   ar
    95   105   106    2
    96   113   112    2
    97   112   119   am
    98    42    41    2
    99    28    29    2
   100    93    90    1
   101   124   123    1
   102    43    41   am
   103    41    40    1
   104   119   120    1
   105   102   100   am
   106   135   134    1
   107    72    74   am
   108    72    73    2
   109   120   123    1
   110   120   121    1
   111   134   136    1
   112   134   131    1
   113    90    89    1
   114    90    91    1
   115    82    81    1
   116    40    39    1
   117    74    75    1
   118    89    85   am
   119    87    88    1
   120    87    84    1
   121   100    99    1
   122   100   101    2
   123    83    84    1
   124    83    76   am
   125    85    84    1
   126    85    86    2
   127    39    36    1
   128   121   122    2
   129    91    92    2
   130   131   132    1
   131   131   130    1
   132    99    98    1
   133    35    36    1
   134    81    80    1
   135   132   133    2
   136    75    76    1
   137    75    78    1
   138    79    78    1
   139    79    80    1
   140    76    77    2
   141    36    37    1
   142    98    95    1
   143    37    38    2
   144    94    95    1
   145    95    96    1
   146    96    97    2
