@<TRIPOS>MOLECULE
tmp/2zpaB00.pdb
 232 229 0 0 0
SMALL
GASTEIGER

@<TRIPOS>ATOM
      1  N         34.5530   37.0190  190.1810 N.3   289  LYS289     -0.1245
      2  CA        34.7080   35.9770  191.1880 C.3   289  LYS289      0.1561
      3  C         35.7880   35.0170  190.7010 C.2   289  LYS289      0.2260
      4  O         36.3520   34.2480  191.4760 O.2   289  LYS289     -0.2867
      5  CB        33.3950   35.2140  191.3860 C.3   289  LYS289      0.0271
      6  CG        32.4640   35.8260  192.4100 C.3   289  LYS289      0.0035
      7  CD        31.1770   35.0220  192.5390 C.3   289  LYS289      0.0206
      8  CE        31.4440   33.5620  192.9050 C.3   289  LYS289      0.1093
      9  NZ        30.1810   32.7800  193.0980 N.3   289  LYS289     -0.1314
     10  N         25.9350   36.6930  185.8800 N.3   363  ALA363     -0.1231
     11  CA        26.5690   35.8660  186.8910 C.3   363  ALA363      0.1694
     12  C         26.8740   34.4670  186.3920 C.2   363  ALA363      0.2592
     13  O         27.3920   33.6430  187.1350 O.2   363  ALA363     -0.2718
     14  CB        25.6800   35.7910  188.1230 C.3   363  ALA363      0.0304
     15  N         26.5460   34.1900  185.1390 N.am  364  HIS364     -0.1976
     16  CA        26.7960   32.8630  184.5910 C.3   364  HIS364      0.1656
     17  C         28.1830   32.8290  183.9470 C.2   364  HIS364      0.2291
     18  O         28.7110   33.8620  183.5270 O.2   364  HIS364     -0.2864
     19  CB        25.7140   32.5080  183.5670 C.3   364  HIS364      0.0771
     20  CG        25.5160   31.0370  183.3780 C.ar  364  HIS364      0.0820
     21  ND1       25.5020   30.4410  182.1350 N.ar  364  HIS364     -0.2267
     22  CD2       25.3620   30.0340  184.2770 C.ar  364  HIS364      0.1154
     23  CE1       25.3490   29.1360  182.2750 C.ar  364  HIS364      0.1986
     24  NE2       25.2630   28.8640  183.5640 N.ar  364  HIS364     -0.2212
     25  N         11.9470   23.2940  188.3110 N.3   442  ARG442     -0.1231
     26  CA        13.3820   23.2260  188.4530 C.3   442  ARG442      0.1694
     27  C         13.9500   24.6280  188.4820 C.2   442  ARG442      0.2592
     28  O         13.4530   25.5250  187.7870 O.2   442  ARG442     -0.2718
     29  CB        13.9790   22.4450  187.2790 C.3   442  ARG442      0.0321
     30  CG        15.5130   22.3680  187.2700 C.3   442  ARG442      0.0489
     31  CD        16.0340   21.4940  186.1280 C.3   442  ARG442      0.2205
     32  NE        15.8080   22.1020  184.8190 N.pl3 442  ARG442     -0.0865
     33  CZ        16.5240   23.1110  184.3240 C.cat 442  ARG442      0.5346
     34  NH1       17.5230   23.6270  185.0320 N.pl3 442  ARG442      0.1354
     35  NH2       16.2360   23.6090  183.1260 N.pl3 442  ARG442      0.1354
     36  N         14.9700   24.8300  189.3100 N.am  443  VAL443     -0.1966
     37  CA        15.6400   26.1210  189.3800 C.3   443  VAL443      0.1727
     38  C         16.6850   26.1310  188.2610 C.2   443  VAL443      0.2617
     39  O         17.6950   25.4310  188.3410 O.2   443  VAL443     -0.2715
     40  CB        16.3630   26.3120  190.7240 C.3   443  VAL443      0.0290
     41  CG1       17.2550   27.5550  190.6600 C.3   443  VAL443      0.0023
     42  CG2       15.3430   26.4450  191.8410 C.3   443  VAL443      0.0023
     43  N         16.4350   26.9160  187.2180 N.am  444  SER444     -0.1936
     44  CA        17.3480   26.9970  186.0840 C.3   444  SER444      0.2055
     45  C         18.5100   27.9450  186.4150 C.2   444  SER444      0.2643
     46  O         19.6700   27.6530  186.1220 O.2   444  SER444     -0.2714
     47  CB        16.5700   27.4810  184.8520 C.3   444  SER444      0.2130
     48  OG        17.3430   27.4250  183.6620 O.3   444  SER444     -0.2179
     49  N         18.1910   29.0830  187.0300 N.am  445  ARG445     -0.1963
     50  CA        19.2030   30.0630  187.4090 C.3   445  ARG445      0.1729
     51  C         18.7590   30.8480  188.6370 C.2   445  ARG445      0.2616
     52  O         17.5720   31.1070  188.8350 O.2   445  ARG445     -0.2715
     53  CB        19.4490   31.0700  186.2860 C.3   445  ARG445      0.0348
     54  CG        19.8870   30.5040  184.9400 C.3   445  ARG445      0.0492
     55  CD        21.3270   30.0160  184.9280 C.3   445  ARG445      0.2205
     56  NE        21.7910   29.8380  183.5560 N.pl3 445  ARG445     -0.0865
     57  CZ        22.1330   30.8380  182.7490 C.cat 445  ARG445      0.5346
     58  NH1       22.5300   30.5810  181.5080 N.pl3 445  ARG445      0.1354
     59  NH2       22.1060   32.0940  183.1870 N.pl3 445  ARG445      0.1354
     60  N         19.7290   31.2300  189.4570 N.am  446  ILE446     -0.1963
     61  CA        19.4690   32.0270  190.6450 C.3   446  ILE446      0.1727
     62  C         20.7270   32.8710  190.8360 C.2   446  ILE446      0.2616
     63  O         21.8320   32.3790  190.6660 O.2   446  ILE446     -0.2715
     64  CB        19.2110   31.1360  191.8820 C.3   446  ILE446      0.0290
     65  CG1       18.8520   32.0090  193.0850 C.3   446  ILE446      0.0022
     66  CG2       20.4160   30.2840  192.1690 C.3   446  ILE446      0.0023
     67  CD1       18.3340   31.2360  194.2960 C.3   446  ILE446      0.0001
     68  N         20.5640   34.1490  191.1450 N.am  447  ALA447     -0.1963
     69  CA        21.7190   35.0070  191.3360 C.3   447  ALA447      0.1728
     70  C         21.4080   36.1950  192.2280 C.2   447  ALA447      0.2616
     71  O         20.3620   36.8250  192.0780 O.2   447  ALA447     -0.2715
     72  CB        22.2240   35.5060  189.9970 C.3   447  ALA447      0.0334
     73  N         22.3330   36.4890  193.1440 N.am  448  VAL448     -0.1977
     74  CA        22.2300   37.6120  194.0690 C.3   448  VAL448      0.1596
     75  C         23.4180   38.5240  193.8170 C.2   448  VAL448      0.2287
     76  O         24.5610   38.0740  193.7890 O.2   448  VAL448     -0.2864
     77  CB        22.2750   37.1490  195.5460 C.3   448  VAL448      0.0276
     78  CG1       22.3430   38.3620  196.4850 C.3   448  VAL448      0.0022
     79  CG2       21.0480   36.3250  195.8570 C.3   448  VAL448      0.0022
     80  N         25.3140   39.9940  198.9550 N.3   453  GLN453     -0.1231
     81  CA        25.2860   38.5670  199.2300 C.3   453  GLN453      0.1698
     82  C         25.2080   38.2770  200.7180 C.2   453  GLN453      0.2592
     83  O         25.3710   39.1680  201.5500 O.2   453  GLN453     -0.2718
     84  CB        26.5100   37.8730  198.6040 C.3   453  GLN453      0.0381
     85  CG        27.7580   37.7930  199.4880 C.3   453  GLN453      0.0905
     86  CD        29.0120   37.4280  198.7030 C.2   453  GLN453      0.2608
     87  OE1       29.2680   36.2480  198.4290 O.2   453  GLN453     -0.2717
     88  NE2       29.8070   38.4370  198.3490 N.am  453  GLN453     -0.0878
     89  N         24.9340   37.0230  201.0390 N.am  454  ARG454     -0.1966
     90  CA        24.8210   36.5560  202.4100 C.3   454  ARG454      0.1729
     91  C         23.9280   37.3660  203.3290 C.2   454  ARG454      0.2616
     92  O         24.2310   37.5370  204.5080 O.2   454  ARG454     -0.2715
     93  CB        26.2120   36.3920  203.0230 C.3   454  ARG454      0.0348
     94  CG        26.8970   35.1460  202.5080 C.3   454  ARG454      0.0492
     95  CD        26.0120   33.9410  202.7660 C.3   454  ARG454      0.2205
     96  NE        26.3730   33.2530  203.9950 N.pl3 454  ARG454     -0.0865
     97  CZ        27.5490   32.6700  204.1860 C.cat 454  ARG454      0.5346
     98  NH1       28.4560   32.7070  203.2270 N.pl3 454  ARG454      0.1354
     99  NH2       27.8220   32.0550  205.3220 N.pl3 454  ARG454      0.1354
    100  N         22.8150   37.8440  202.7800 N.am  455  GLU455     -0.1963
    101  CA        21.8240   38.6160  203.5270 C.3   455  GLU455      0.1733
    102  C         20.5180   37.8320  203.6410 C.2   455  GLU455      0.2617
    103  O         19.5590   38.3040  204.2420 O.2   455  GLU455     -0.2715
    104  CB        21.5210   39.9440  202.8280 C.3   455  GLU455      0.0429
    105  CG        22.6430   40.9480  202.8480 C.3   455  GLU455      0.1163
    106  CD        22.2770   42.2280  202.1280 C.2   455  GLU455      0.3649
    107  OE1       21.0990   42.6390  202.2100 O.co2 455  GLU455     -0.2457
    108  OE2       23.1710   42.8260  201.4900 O.co2 455  GLU455     -0.2457
    109  N         20.4760   36.6400  203.0510 N.am  456  GLY456     -0.1940
    110  CA        19.2730   35.8260  203.0990 C.3   456  GLY456      0.2014
    111  C         18.3840   35.9870  201.8680 C.2   456  GLY456      0.2640
    112  O         17.3740   35.3100  201.7220 O.2   456  GLY456     -0.2714
    113  N         18.7770   36.8820  200.9760 N.am  457  THR457     -0.1936
    114  CA        18.0200   37.1630  199.7660 C.3   457  THR457      0.2028
    115  C         17.9170   35.9210  198.8880 C.2   457  THR457      0.2643
    116  O         16.8660   35.6160  198.3500 O.2   457  THR457     -0.2714
    117  CB        18.6910   38.3000  198.9960 C.3   457  THR457      0.1808
    118  OG1       18.7180   39.4720  199.8270 O.3   457  THR457     -0.2208
    119  CG2       17.9550   38.5930  197.6960 C.3   457  THR457      0.0379
    120  N         19.0100   35.1870  198.7680 N.am  458  GLY458     -0.1939
    121  CA        18.9820   33.9910  197.9560 C.3   458  GLY458      0.2014
    122  C         17.8690   33.0610  198.3790 C.2   458  GLY458      0.2638
    123  O         17.0500   32.6420  197.5600 O.2   458  GLY458     -0.2714
    124  N         17.8350   32.7410  199.6680 N.am  459  ARG459     -0.1977
    125  CA        16.8290   31.8370  200.2190 C.3   459  ARG459      0.1597
    126  C         15.4460   32.4920  200.2410 C.2   459  ARG459      0.2287
    127  O         14.4230   31.8130  200.1790 O.2   459  ARG459     -0.2864
    128  CB        17.2500   31.4140  201.6210 C.3   459  ARG459      0.0334
    129  CG        16.3300   30.4310  202.3140 C.3   459  ARG459      0.0492
    130  CD        16.9540   30.0280  203.6510 C.3   459  ARG459      0.2205
    131  NE        17.4380   31.2120  204.3560 N.pl3 459  ARG459     -0.0865
    132  CZ        18.4460   31.2230  205.2220 C.cat 459  ARG459      0.5346
    133  NH1       19.0960   30.0970  205.5150 N.pl3 459  ARG459      0.1354
    134  NH2       18.8200   32.3780  205.7700 N.pl3 459  ARG459      0.1354
    135  N         16.8100   21.2740  191.7080 N.3   477  VAL477     -0.1231
    136  CA        17.9760   21.9590  191.1700 C.3   477  VAL477      0.1692
    137  C         19.0250   20.9420  190.7360 C.2   477  VAL477      0.2593
    138  O         19.1830   19.8850  191.3530 O.2   477  VAL477     -0.2718
    139  CB        18.6330   22.8970  192.2000 C.3   477  VAL477      0.0266
    140  CG1       19.8990   23.4770  191.6190 C.3   477  VAL477      0.0020
    141  CG2       17.6930   24.0350  192.5600 C.3   477  VAL477      0.0020
    142  N         19.7230   21.2710  189.6580 N.am  478  SER478     -0.1938
    143  CA        20.7870   20.4380  189.1260 C.3   478  SER478      0.2055
    144  C         21.9500   21.4040  189.1140 C.2   478  SER478      0.2643
    145  O         21.8270   22.4920  188.5670 O.2   478  SER478     -0.2714
    146  CB        20.4570   19.9890  187.7010 C.3   478  SER478      0.2130
    147  OG        21.4790   19.1700  187.1610 O.3   478  SER478     -0.2179
    148  N         23.0680   21.0310  189.7210 N.am  479  PHE479     -0.1959
    149  CA        24.2050   21.9410  189.7670 C.3   479  PHE479      0.1771
    150  C         25.5600   21.2390  189.8540 C.2   479  PHE479      0.2620
    151  O         25.6430   20.0610  190.2260 O.2   479  PHE479     -0.2715
    152  CB        24.0400   22.9030  190.9570 C.3   479  PHE479      0.0574
    153  CG        24.1330   22.2310  192.3070 C.ar  479  PHE479     -0.0200
    154  CD1       25.3690   21.9990  192.9040 C.ar  479  PHE479     -0.0042
    155  CD2       22.9850   21.7980  192.9640 C.ar  479  PHE479     -0.0042
    156  CE1       25.4620   21.3450  194.1320 C.ar  479  PHE479     -0.0003
    157  CE2       23.0650   21.1400  194.1970 C.ar  479  PHE479     -0.0003
    158  CZ        24.3030   20.9130  194.7800 C.ar  479  PHE479     -0.0000
    159  N         26.6140   21.9760  189.4890 N.am  480  GLY480     -0.1954
    160  CA        27.9620   21.4390  189.5620 C.3   480  GLY480      0.1869
    161  C         28.2900   21.3610  191.0370 C.2   480  GLY480      0.2309
    162  O         28.3890   22.3890  191.6940 O.2   480  GLY480     -0.2863
    163  N         30.5710   24.2780  198.9050 N.3   484  GLU484     -0.1231
    164  CA        29.8800   25.5230  199.1490 C.3   484  GLU484      0.1699
    165  C         28.5020   25.5780  198.4970 C.2   484  GLU484      0.2592
    166  O         27.4930   25.6270  199.1730 O.2   484  GLU484     -0.2718
    167  CB        30.7270   26.7170  198.7010 C.3   484  GLU484      0.0402
    168  CG        32.0850   26.3480  198.1510 C.3   484  GLU484      0.1161
    169  CD        32.8640   27.5720  197.7360 C.2   484  GLU484      0.3649
    170  OE1       33.5940   27.4940  196.7140 O.co2 484  GLU484     -0.2457
    171  OE2       32.7440   28.6060  198.4370 O.co2 484  GLU484     -0.2457
    172  N         28.4210   25.5350  197.1840 N.am  485  LEU485     -0.1980
    173  CA        27.1010   25.6190  196.5970 C.3   485  LEU485      0.1596
    174  C         26.1130   24.6520  197.2580 C.2   485  LEU485      0.2287
    175  O         24.9620   25.0090  197.5080 O.2   485  LEU485     -0.2864
    176  CB        27.1760   25.3850  195.0900 C.3   485  LEU485      0.0297
    177  CG        25.9020   25.7540  194.3310 C.3   485  LEU485      0.0022
    178  CD1       25.2530   26.9780  194.9560 C.3   485  LEU485      0.0001
    179  CD2       26.2410   26.0180  192.8680 C.3   485  LEU485      0.0001
    180  N         25.7270   23.3270  200.5280 N.3   487  ARG487     -0.1231
    181  CA        24.9960   23.6940  201.7250 C.3   487  ARG487      0.1694
    182  C         24.1970   24.9890  201.6200 C.2   487  ARG487      0.2592
    183  O         23.4640   25.3390  202.5350 O.2   487  ARG487     -0.2718
    184  CB        25.8870   23.6240  202.9760 C.3   487  ARG487      0.0321
    185  CG        26.1980   24.9030  203.6810 C.3   487  ARG487      0.0489
    186  CD        26.5580   24.5750  205.0750 C.3   487  ARG487      0.2205
    187  NE        27.9680   24.2320  205.1750 N.pl3 487  ARG487     -0.0865
    188  CZ        28.5460   23.8470  206.3030 C.cat 487  ARG487      0.5346
    189  NH1       27.8120   23.7530  207.4110 N.pl3 487  ARG487      0.1354
    190  NH2       29.8590   23.6180  206.3530 N.pl3 487  ARG487      0.1354
    191  N         24.3110   25.6920  200.4970 N.am  488  PHE488     -0.1962
    192  CA        23.4700   26.8730  200.3110 C.3   488  PHE488      0.1771
    193  C         22.1010   26.2630  200.0220 C.2   488  PHE488      0.2619
    194  O         21.0890   26.6630  200.5970 O.2   488  PHE488     -0.2715
    195  CB        23.8670   27.7050  199.0940 C.3   488  PHE488      0.0574
    196  CG        22.7480   28.5810  198.5890 C.ar  488  PHE488     -0.0200
    197  CD1       22.2740   29.6480  199.3560 C.ar  488  PHE488     -0.0042
    198  CD2       22.1130   28.2980  197.3780 C.ar  488  PHE488     -0.0042
    199  CE1       21.1750   30.4270  198.9270 C.ar  488  PHE488     -0.0003
    200  CE2       21.0230   29.0580  196.9390 C.ar  488  PHE488     -0.0003
    201  CZ        20.5510   30.1270  197.7170 C.ar  488  PHE488     -0.0000
    202  N         22.0840   25.2850  199.1180 N.am  489  TRP489     -0.1974
    203  CA        20.8460   24.6020  198.7570 C.3   489  TRP489      0.1640
    204  C         20.3180   23.8210  199.9580 C.2   489  TRP489      0.2290
    205  O         19.1150   23.8170  200.2280 O.2   489  TRP489     -0.2864
    206  CB        21.0710   23.6410  197.5780 C.3   489  TRP489      0.0576
    207  CG        21.4010   24.3280  196.2840 C.ar  489  TRP489      0.0006
    208  CD1       22.5650   24.2340  195.5780 C.ar  489  TRP489      0.0946
    209  CD2       20.5720   25.2570  195.5700 C.ar  489  TRP489      0.0152
    210  NE1       22.5170   25.0520  194.4720 N.ar  489  TRP489     -0.2442
    211  CE2       21.3050   25.6900  194.4440 C.ar  489  TRP489      0.0810
    212  CE3       19.2820   25.7660  195.7740 C.ar  489  TRP489      0.0012
    213  CZ2       20.7930   26.6090  193.5280 C.ar  489  TRP489      0.0191
    214  CZ3       18.7780   26.6740  194.8710 C.ar  489  TRP489      0.0001
    215  CH2       19.5340   27.0900  193.7570 C.ar  489  TRP489      0.0015
    216  N         20.7750   24.4730  203.0820 N.3   491  ARG491     -0.1231
    217  CA        20.2320   25.3830  204.0710 C.3   491  ARG491      0.1694
    218  C         19.0160   26.1190  203.5450 C.2   491  ARG491      0.2592
    219  O         18.4290   26.9550  204.2310 O.2   491  ARG491     -0.2718
    220  CB        21.3410   26.2870  204.5760 C.3   491  ARG491      0.0321
    221  CG        22.3240   25.4900  205.4550 C.3   491  ARG491      0.0489
    222  CD        21.5560   24.5400  206.3410 C.3   491  ARG491      0.2205
    223  NE        20.4880   25.2930  206.9390 N.pl3 491  ARG491     -0.0865
    224  CZ        20.7350   26.3400  207.6990 C.cat 491  ARG491      0.5346
    225  NH1       21.9840   26.7070  207.9660 N.pl3 491  ARG491      0.1354
    226  NH2       19.7350   27.0310  208.2130 N.pl3 491  ARG491      0.1354
    227  N         18.6480   25.7770  202.3240 N.am  492  CYS492     -0.1970
    228  CA        17.4750   26.3750  201.7080 C.3   492  CYS492      0.1712
    229  C         16.3520   25.3340  201.8190 C.2   492  CYS492      0.2296
    230  O         15.1900   25.5950  201.4780 O.2   492  CYS492     -0.2864
    231  CB        17.7590   26.7460  200.2460 C.3   492  CYS492      0.0983
    232  SG        18.3700   28.4560  199.9920 S.3   492  CYS492     -0.0798
@<TRIPOS>BOND
     1    58    57    1
     2    21    23   ar
     3    21    20   ar
     4    23    24   ar
     5    57    59    1
     6    57    56    2
     7    35    33    1
     8    20    19    1
     9    20    22   ar
    10    18    17    2
    11    56    55    1
    12    24    22   ar
    13    19    16    1
    14    48    47    1
    15    17    16    1
    16    33    32    2
    17    33    34    1
    18    16    15    1
    19    32    31    1
    20    47    44    1
    21    55    54    1
    22    54    53    1
    23    15    12   am
    24    10    11    1
    25    44    45    1
    26    44    43    1
    27    46    45    2
    28    31    30    1
    29    53    50    1
    30    12    11    1
    31    12    13    2
    32    45    49   am
    33    11    14    1
    34    49    50    1
    35   147   146    1
    36    43    38   am
    37    30    29    1
    38    29    26    1
    39    50    51    1
    40   146   143    1
    41    28    27    2
    42    38    39    2
    43    38    37    1
    44    25    26    1
    45    26    27    1
    46    27    36   am
    47   145   144    2
    48    51    52    2
    49    51    60   am
    50   144   143    1
    51   144   148   am
    52   143   142    1
    53    36    37    1
    54    37    40    1
    55    60    61    1
    56   159   160    1
    57   159   150   am
    58   160   161    1
    59   142   137   am
    60   148   149    1
    61   149   150    1
    62   149   152    1
    63   150   151    2
    64    72    69    1
    65     1     2    1
    66    61    62    1
    67    61    64    1
    68    41    40    1
    69    63    62    2
    70     3     2    1
    71     3     4    2
    72    40    42    1
    73   137   136    1
    74   137   138    2
    75    62    68   am
    76   152   153    1
    77   161   162    2
    78    68    69    1
    79   136   135    1
    80   136   139    1
    81     2     5    1
    82    69    70    1
    83     5     6    1
    84   140   139    1
    85    64    66    1
    86    64    65    1
    87    71    70    2
    88   139   141    1
    89    70    73   am
    90   153   154   ar
    91   153   155   ar
    92     6     7    1
    93     7     8    1
    94   179   177    1
    95   154   156   ar
    96     8     9    1
    97   155   157   ar
    98    65    67    1
    99    73    74    1
   100   213   215   ar
   101   213   211   ar
   102   215   214   ar
   103    76    75    2
   104    75    74    1
   105    74    77    1
   106   156   158   ar
   107   157   158   ar
   108   177   178    1
   109   177   176    1
   110   211   210   ar
   111   211   209   ar
   112   210   208   ar
   113   214   212   ar
   114   176   173    1
   115    77    79    1
   116    77    78    1
   117   209   212   ar
   118   209   207   ar
   119   208   207   ar
   120   207   206    1
   121   173   172    1
   122   173   174    1
   123   170   169   ar
   124   200   198   ar
   125   200   201   ar
   126   172   165   am
   127   174   175    2
   128   198   196   ar
   129   123   122    2
   130   206   203    1
   131   119   117    1
   132   201   199   ar
   133   169   168    1
   134   169   171   ar
   135   121   122    1
   136   121   120    1
   137   168   167    1
   138    88    86   am
   139   116   115    2
   140   122   124   am
   141    87    86    2
   142   165   164    1
   143   165   166    2
   144   196   195    1
   145   196   197   ar
   146    84    81    1
   147    84    85    1
   148   167   164    1
   149    86    85    1
   150   203   202    1
   151   203   204    1
   152   120   115   am
   153   115   114    1
   154   163   164    1
   155   199   197   ar
   156    80    81    1
   157   117   114    1
   158   117   118    1
   159   195   192    1
   160   202   193   am
   161    81    82    1
   162   124   125    1
   163   114   113    1
   164   204   205    2
   165   232   231    1
   166   193   192    1
   167   193   194    2
   168   127   126    2
   169   125   126    1
   170   125   128    1
   171   231   228    1
   172   192   191    1
   173   191   182   am
   174   180   181    1
   175    82    89   am
   176    82    83    2
   177   113   111   am
   178    89    90    1
   179   230   229    2
   180   108   106   ar
   181   182   181    1
   182   182   183    2
   183   128   129    1
   184   228   229    1
   185   228   227    1
   186   112   111    2
   187   181   184    1
   188   111   110    1
   189   106   107   ar
   190   106   105    1
   191   129   130    1
   192   227   218   am
   193    90    93    1
   194    90    91    1
   195    94    95    1
   196    94    93    1
   197    95    96    1
   198   100    91   am
   199   100   101    1
   200   104   105    1
   201   104   101    1
   202   184   185    1
   203   109   110    1
   204   109   102   am
   205   216   217    1
   206    98    97    1
   207    91    92    2
   208   101   102    1
   209   218   217    1
   210   218   219    2
   211   102   103    2
   212   130   131    1
   213   185   186    1
   214    96    97    2
   215   217   220    1
   216    97    99    1
   217   131   132    2
   218   220   221    1
   219   186   187    1
   220   187   188    2
   221   132   133    1
   222   132   134    1
   223   221   222    1
   224   188   190    1
   225   188   189    1
   226   222   223    1
   227   223   224    2
   228   224   225    1
   229   224   226    1
