@<TRIPOS>MOLECULE
tmp/2zpnB00.pdb
 161 155 0 0 0
SMALL
GASTEIGER

@<TRIPOS>ATOM
      1  N        -12.5750  -10.5570   33.1400 N.3    14  GLU14      -0.1245
      2  CA       -12.3860   -9.5150   32.1360 C.3    14  GLU14       0.1567
      3  C        -13.5950   -8.6010   32.0020 C.2    14  GLU14       0.2260
      4  O        -13.4480   -7.3750   31.9410 O.2    14  GLU14      -0.2867
      5  CB       -12.0530  -10.1310   30.7810 C.3    14  GLU14       0.0388
      6  CG       -10.5700  -10.3990   30.5960 C.3    14  GLU14       0.1160
      7  CD       -10.2270  -10.8060   29.1790 C.2    14  GLU14       0.3649
      8  OE1      -10.6030  -11.9300   28.7730 O.co2  14  GLU14      -0.2457
      9  OE2       -9.5870   -9.9930   28.4730 O.co2  14  GLU14      -0.2457
     10  N        -13.0080   -4.4570   32.3530 N.3    18  ILE18      -0.1245
     11  CA       -13.2820   -3.7450   31.1140 C.3    18  ILE18       0.1561
     12  C        -14.3840   -2.7470   31.4310 C.2    18  ILE18       0.2260
     13  O        -14.2340   -1.5410   31.2310 O.2    18  ILE18      -0.2867
     14  CB       -13.7860   -4.6900   30.0310 C.3    18  ILE18       0.0252
     15  CG1      -12.7320   -5.7500   29.7430 C.3    18  ILE18       0.0019
     16  CG2      -14.0910   -3.9120   28.7680 C.3    18  ILE18       0.0019
     17  CD1      -13.2680   -6.8950   28.9490 C.3    18  ILE18       0.0001
     18  N        -13.9960    1.1940   31.1690 N.3    22  PHE22      -0.1241
     19  CA       -14.6630    1.6390   29.9460 C.3    22  PHE22       0.1605
     20  C        -16.1580    1.7160   30.2190 C.2    22  PHE22       0.2264
     21  O        -16.8790    0.7170   30.1070 O.2    22  PHE22      -0.2867
     22  CB       -14.3990    0.6710   28.7880 C.3    22  PHE22       0.0534
     23  CG       -12.9510    0.5930   28.3650 C.ar   22  PHE22      -0.0203
     24  CD1      -12.2170   -0.5680   28.5620 C.ar   22  PHE22      -0.0042
     25  CD2      -12.3250    1.6780   27.7550 C.ar   22  PHE22      -0.0042
     26  CE1      -10.8870   -0.6480   28.1560 C.ar   22  PHE22      -0.0003
     27  CE2      -10.9880    1.6040   27.3460 C.ar   22  PHE22      -0.0003
     28  CZ       -10.2710    0.4410   27.5460 C.ar   22  PHE22      -0.0000
     29  N        -18.6360    1.6770   26.9060 N.3    25  ARG25      -0.1245
     30  CA       -18.5480    0.5030   26.0430 C.3    25  ARG25       0.1563
     31  C        -19.1900   -0.7890   26.5270 C.2    25  ARG25       0.2260
     32  O        -19.4920   -0.9610   27.6970 O.2    25  ARG25      -0.2867
     33  CB       -17.0750    0.2440   25.7020 C.3    25  ARG25       0.0307
     34  CG       -16.3800    1.4760   25.1570 C.3    25  ARG25       0.0489
     35  CD       -17.1610    2.0180   23.9770 C.3    25  ARG25       0.2205
     36  NE       -17.0910    3.4680   23.8680 N.pl3  25  ARG25      -0.0865
     37  CZ       -15.9660    4.1500   23.7020 C.cat  25  ARG25       0.5346
     38  NH1      -14.8050    3.5150   23.6290 N.pl3  25  ARG25       0.1354
     39  NH2      -16.0050    5.4680   23.5990 N.pl3  25  ARG25       0.1354
     40  N        -18.5750   -4.9690   26.2030 N.3    27  PRO27      -0.2102
     41  CA       -17.6260   -6.0220   25.8370 C.3    27  PRO27       0.1504
     42  C        -18.3180   -7.0720   24.9780 C.2    27  PRO27       0.2576
     43  O        -19.2520   -7.7290   25.4320 O.2    27  PRO27      -0.2718
     44  CB       -17.2240   -6.5790   27.1860 C.3    27  PRO27       0.0282
     45  CG       -18.5510   -6.5520   27.9160 C.3    27  PRO27       0.0208
     46  CD       -19.0520   -5.1600   27.5870 C.3    27  PRO27       0.0893
     47  N        -17.8600   -7.2330   23.7460 N.am   28  VAL28      -0.1966
     48  CA       -18.4560   -8.2210   22.8580 C.3    28  VAL28       0.1727
     49  C        -17.4620   -9.2640   22.3370 C.2    28  VAL28       0.2616
     50  O        -16.3310   -8.9340   21.9840 O.2    28  VAL28      -0.2715
     51  CB       -19.1160   -7.5440   21.6300 C.3    28  VAL28       0.0290
     52  CG1      -19.7210   -8.5990   20.7190 C.3    28  VAL28       0.0023
     53  CG2      -20.1870   -6.5640   22.0770 C.3    28  VAL28       0.0023
     54  N        -17.8880  -10.5230   22.3120 N.am   29  ILE29      -0.1977
     55  CA       -17.0710  -11.6040   21.7750 C.3    29  ILE29       0.1596
     56  C        -17.7180  -11.9640   20.4450 C.2    29  ILE29       0.2287
     57  O        -18.8630  -12.4310   20.3990 O.2    29  ILE29      -0.2864
     58  CB       -17.0790  -12.8780   22.6580 C.3    29  ILE29       0.0276
     59  CG1      -16.3520  -12.6190   23.9780 C.3    29  ILE29       0.0022
     60  CG2      -16.3850  -14.0140   21.9190 C.3    29  ILE29       0.0022
     61  CD1      -14.9150  -12.2040   23.7900 C.3    29  ILE29       0.0001
     62  N         -8.9070  -12.1710   15.9100 N.3    43  LYS43      -0.1245
     63  CA        -9.3720  -11.0560   16.7360 C.3    43  LYS43       0.1561
     64  C        -10.8630  -11.2400   17.0460 C.2    43  LYS43       0.2260
     65  O        -11.7040  -10.9380   16.2030 O.2    43  LYS43      -0.2867
     66  CB        -9.1820   -9.7740   15.9270 C.3    43  LYS43       0.0271
     67  CG        -8.8160   -8.5180   16.6810 C.3    43  LYS43       0.0035
     68  CD        -9.2970   -7.2940   15.8830 C.3    43  LYS43       0.0206
     69  CE        -8.9920   -7.4210   14.3870 C.3    43  LYS43       0.1093
     70  NZ        -9.9260   -6.6190   13.5480 N.3    43  LYS43      -0.1314
     71  N        -12.4630  -10.1720   20.2520 N.3    45  LYS45      -0.1231
     72  CA       -12.9660   -9.3150   21.3200 C.3    45  LYS45       0.1693
     73  C        -13.1520   -7.8800   20.8450 C.2    45  LYS45       0.2592
     74  O        -12.2040   -7.2270   20.4030 O.2    45  LYS45      -0.2718
     75  CB       -12.0040   -9.3170   22.5070 C.3    45  LYS45       0.0285
     76  CG       -11.9710  -10.5930   23.3200 C.3    45  LYS45       0.0035
     77  CD       -10.9010  -10.4720   24.3980 C.3    45  LYS45       0.0206
     78  CE       -10.9660  -11.6030   25.4120 C.3    45  LYS45       0.1093
     79  NZ        -9.7490  -11.6320   26.2850 N.3    45  LYS45      -0.1314
     80  N        -14.3710   -7.3740   20.9560 N.am   46  TYR46      -0.1962
     81  CA       -14.6260   -6.0180   20.5160 C.3    46  TYR46       0.1771
     82  C        -15.1700   -5.1140   21.6090 C.2    46  TYR46       0.2619
     83  O        -15.8730   -5.5670   22.5050 O.2    46  TYR46      -0.2715
     84  CB       -15.5720   -6.0450   19.3190 C.3    46  TYR46       0.0574
     85  CG       -14.9360   -6.6840   18.1240 C.ar   46  TYR46      -0.0198
     86  CD1      -14.9280   -8.0680   17.9720 C.ar   46  TYR46      -0.0009
     87  CD2      -14.2560   -5.9090   17.1830 C.ar   46  TYR46      -0.0009
     88  CE1      -14.2530   -8.6750   16.9130 C.ar   46  TYR46       0.0417
     89  CE2      -13.5760   -6.4920   16.1240 C.ar   46  TYR46       0.0417
     90  CZ       -13.5770   -7.8790   15.9930 C.ar   46  TYR46       0.1957
     91  OH       -12.8940   -8.4610   14.9470 O.3    46  TYR46      -0.2866
     92  N        -14.8120   -3.8380   21.5390 N.am   47  LEU47      -0.1963
     93  CA       -15.2860   -2.8480   22.4950 C.3    47  LEU47       0.1728
     94  C        -16.2710   -1.9960   21.7220 C.2    47  LEU47       0.2616
     95  O        -15.8720   -1.1830   20.9010 O.2    47  LEU47      -0.2715
     96  CB       -14.1340   -1.9720   22.9950 C.3    47  LEU47       0.0311
     97  CG       -13.1820   -2.5510   24.0470 C.3    47  LEU47       0.0022
     98  CD1      -12.0460   -1.5650   24.3170 C.3    47  LEU47       0.0001
     99  CD2      -13.9520   -2.8540   25.3350 C.3    47  LEU47       0.0001
    100  N        -17.5580   -2.1740   21.9830 N.am   48  VAL48      -0.1964
    101  CA       -18.5600   -1.4250   21.2400 C.3    48  VAL48       0.1712
    102  C        -19.3420   -0.3520   21.9910 C.2    48  VAL48       0.2458
    103  O        -19.7520   -0.5490   23.1400 O.2    48  VAL48      -0.2730
    104  CB       -19.5620   -2.3950   20.5700 C.3    48  VAL48       0.0289
    105  CG1      -18.8040   -3.3750   19.7020 C.3    48  VAL48       0.0023
    106  CG2      -20.3480   -3.1500   21.6150 C.3    48  VAL48       0.0023
    107  N        -19.5530    0.8080   21.3330 N.am   49  PRO49      -0.2727
    108  CA       -20.2790    1.9780   21.8400 C.3    49  PRO49       0.1402
    109  C        -21.7380    1.6110   22.0100 C.2    49  PRO49       0.2269
    110  O        -22.2770    0.8190   21.2460 O.2    49  PRO49      -0.2865
    111  CB       -20.0860    3.0050   20.7380 C.3    49  PRO49       0.0296
    112  CG       -18.7810    2.6140   20.1390 C.3    49  PRO49       0.0237
    113  CD       -18.9230    1.1320   20.0430 C.3    49  PRO49       0.0939
    114  N        -23.9720    1.6420   18.8890 N.3    52  LEU52      -0.1245
    115  CA       -23.4930    1.0230   17.6710 C.3    52  LEU52       0.1561
    116  C        -24.6570    0.1650   17.1690 C.2    52  LEU52       0.2260
    117  O        -25.3250   -0.5030   17.9650 O.2    52  LEU52      -0.2867
    118  CB       -22.2850    0.1370   17.9610 C.3    52  LEU52       0.0270
    119  CG       -21.6980   -0.5010   16.7050 C.3    52  LEU52       0.0019
    120  CD1      -20.8750    0.5400   15.9750 C.3    52  LEU52       0.0001
    121  CD2      -20.8470   -1.7040   17.0620 C.3    52  LEU52       0.0001
    122  N        -22.0140   -3.0500   13.0390 N.3    57  PHE57      -0.1241
    123  CA       -21.1030   -4.0620   13.5380 C.3    57  PHE57       0.1605
    124  C        -20.8460   -5.0680   12.4320 C.2    57  PHE57       0.2264
    125  O        -19.7390   -5.5780   12.2880 O.2    57  PHE57      -0.2867
    126  CB       -21.6990   -4.7880   14.7380 C.3    57  PHE57       0.0534
    127  CG       -20.7220   -5.6820   15.4420 C.ar   57  PHE57      -0.0203
    128  CD1      -19.8990   -5.1830   16.4440 C.ar   57  PHE57      -0.0042
    129  CD2      -20.6070   -7.0230   15.0890 C.ar   57  PHE57      -0.0042
    130  CE1      -18.9660   -6.0130   17.0910 C.ar   57  PHE57      -0.0003
    131  CE2      -19.6800   -7.8580   15.7250 C.ar   57  PHE57      -0.0003
    132  CZ       -18.8580   -7.3480   16.7290 C.ar   57  PHE57      -0.0000
    133  N        -18.2990   -3.7720   10.0240 N.3    60  VAL60      -0.1245
    134  CA       -16.9760   -3.8920   10.5910 C.3    60  VAL60       0.1561
    135  C        -16.3730   -5.2670   10.3190 C.2    60  VAL60       0.2260
    136  O        -15.2400   -5.3710    9.8380 O.2    60  VAL60      -0.2867
    137  CB       -17.0270   -3.6200   12.0990 C.3    60  VAL60       0.0252
    138  CG1      -15.7160   -3.9890   12.7440 C.3    60  VAL60       0.0019
    139  CG2      -17.3360   -2.1380   12.3380 C.3    60  VAL60       0.0019
    140  N        -12.7670   -6.5210    7.9870 N.3    64  ARG64      -0.1245
    141  CA       -11.5400   -7.1980    8.3850 C.3    64  ARG64       0.1563
    142  C        -11.3710   -8.6210    7.8900 C.2    64  ARG64       0.2260
    143  O        -10.3000   -9.1960    8.0560 O.2    64  ARG64      -0.2867
    144  CB       -11.3160   -7.1330    9.8960 C.3    64  ARG64       0.0307
    145  CG       -12.5260   -7.2210   10.7280 C.3    64  ARG64       0.0489
    146  CD       -12.3630   -6.2270   11.8330 C.3    64  ARG64       0.2205
    147  NE       -12.1610   -4.8980   11.2670 N.pl3  64  ARG64      -0.0865
    148  CZ       -12.1670   -3.7690   11.9700 C.cat  64  ARG64       0.5346
    149  NH1      -11.9740   -2.6000   11.3690 N.pl3  64  ARG64       0.1354
    150  NH2      -12.3680   -3.8110   13.2770 N.pl3  64  ARG64       0.1354
    151  N        -20.0810  -10.7100   29.0850 N.3   101  PHE101     -0.1241
    152  CA       -19.8950  -10.4030   27.6730 C.3   101  PHE101      0.1605
    153  C        -21.1790  -10.6860   26.9110 C.2   101  PHE101      0.2264
    154  O        -22.1040  -11.3060   27.4270 O.2   101  PHE101     -0.2867
    155  CB       -18.8050  -11.2820   27.0440 C.3   101  PHE101      0.0534
    156  CG       -17.4380  -11.0920   27.6300 C.ar  101  PHE101     -0.0203
    157  CD1      -16.8120  -12.1350   28.3040 C.ar  101  PHE101     -0.0042
    158  CD2      -16.7670   -9.8750   27.4970 C.ar  101  PHE101     -0.0042
    159  CE1      -15.5460  -11.9740   28.8380 C.ar  101  PHE101     -0.0003
    160  CE2      -15.4930   -9.7000   28.0300 C.ar  101  PHE101     -0.0003
    161  CZ       -14.8820  -10.7500   28.7020 C.ar  101  PHE101     -0.0000
@<TRIPOS>BOND
     1   142   143    2
     2   142   141    1
     3   140   141    1
     4   141   144    1
     5   136   135    2
     6   144   145    1
     7   133   134    1
     8   135   134    1
     9   134   137    1
    10   145   146    1
    11   147   146    1
    12   147   148    2
    13   149   148    1
    14   148   150    1
    15   137   139    1
    16   137   138    1
    17   125   124    2
    18   124   123    1
    19   122   123    1
    20   123   126    1
    21    70    69    1
    22    69    68    1
    23   126   127    1
    24    91    90    1
    25   129   127   ar
    26   129   131   ar
    27   127   128   ar
    28   131   132   ar
    29    68    67    1
    30    62    63    1
    31    66    67    1
    32    66    63    1
    33   120   119    1
    34    90    89   ar
    35    90    88   ar
    36    89    87   ar
    37    65    64    2
    38   128   130   ar
    39   119   121    1
    40   119   118    1
    41   132   130   ar
    42    63    64    1
    43    88    86   ar
    44   116   115    1
    45   116   117    2
    46    87    85   ar
    47   115   118    1
    48   115   114    1
    49    86    85   ar
    50    85    84    1
    51    84    81    1
    52   105   104    1
    53   113   112    1
    54   113   107    1
    55   112   111    1
    56    71    72    1
    57    57    56    2
    58    74    73    2
    59    56    55    1
    60    81    80    1
    61    81    82    1
    62   104   101    1
    63   104   106    1
    64    52    51    1
    65   111   108    1
    66    73    80   am
    67    73    72    1
    68    95    94    2
    69   101   100    1
    70   101   102    1
    71   110   109    2
    72    72    75    1
    73   107   108    1
    74   107   102   am
    75    92    82   am
    76    92    93    1
    77    82    83    2
    78    51    53    1
    79    51    48    1
    80    94   100   am
    81    94    93    1
    82    55    54    1
    83    55    58    1
    84   108   109    1
    85    60    58    1
    86    50    49    2
    87   102   103    2
    88    54    49   am
    89    49    48    1
    90    93    96    1
    91    75    76    1
    92    58    59    1
    93    48    47    1
    94    96    97    1
    95    76    77    1
    96    39    37    1
    97    38    37    1
    98    37    36    2
    99    47    42   am
   100    61    59    1
   101    36    35    1
   102    35    34    1
   103    97    98    1
   104    97    99    1
   105    77    78    1
   106    42    43    2
   107    42    41    1
   108    34    33    1
   109    78    79    1
   110    33    30    1
   111    41    40    1
   112    41    44    1
   113    30    31    1
   114    30    29    1
   115    40    46    1
   116    31    32    2
   117   153   154    2
   118   153   152    1
   119   155   156    1
   120   155   152    1
   121    44    45    1
   122    27    28   ar
   123    27    25   ar
   124   158   156   ar
   125   158   160   ar
   126    28    26   ar
   127    46    45    1
   128   156   157   ar
   129   152   151    1
   130    25    23   ar
   131   160   161   ar
   132    26    24   ar
   133   157   159   ar
   134    23    24   ar
   135    23    22    1
   136     9     7   ar
   137   161   159   ar
   138    16    14    1
   139     8     7   ar
   140    22    19    1
   141    17    15    1
   142     7     6    1
   143    15    14    1
   144    19    20    1
   145    19    18    1
   146    14    11    1
   147    21    20    2
   148     6     5    1
   149     5     2    1
   150    11    12    1
   151    11    10    1
   152    13    12    2
   153     4     3    2
   154     3     2    1
   155     2     1    1
