@<TRIPOS>MOLECULE
tmp/2zprB00.pdb
 124 125 0 0 0
SMALL
GASTEIGER

@<TRIPOS>ATOM
      1  N         49.1770   27.6270   11.4100 N.3    40  HIS40      -0.1241
      2  CA        50.2910   28.5640   11.5180 C.3    40  HIS40       0.1621
      3  C         50.2650   29.3270   12.8370 C.2    40  HIS40       0.2264
      4  O         51.1900   30.0760   13.1500 O.2    40  HIS40      -0.2867
      5  CB        50.3350   29.5360   10.3210 C.3    40  HIS40       0.0745
      6  CG        49.3970   30.7010   10.4220 C.ar   40  HIS40       0.0817
      7  ND1       48.1300   30.6920    9.8750 N.ar   40  HIS40      -0.2268
      8  CD2       49.5610   31.9300   10.9680 C.ar   40  HIS40       0.1154
      9  CE1       47.5570   31.8670   10.0770 C.ar   40  HIS40       0.1986
     10  NE2       48.4050   32.6360   10.7370 N.ar   40  HIS40      -0.2212
     11  N         38.9540   43.7010    4.9220 N.3   170  ASP170     -0.1225
     12  CA        39.6660   42.4270    4.9360 C.3   170  ASP170      0.1805
     13  C         40.0680   42.0850    6.3660 C.2   170  ASP170      0.2598
     14  O         39.9920   42.9360    7.2580 O.2   170  ASP170     -0.2718
     15  CB        40.9060   42.5850    4.0410 C.3   170  ASP170      0.1424
     16  CG        41.7140   41.3090    3.8820 C.2   170  ASP170      0.3668
     17  OD1       41.1670   40.2040    4.0720 O.co2 170  ASP170     -0.2456
     18  OD2       42.9100   41.4260    3.5360 O.co2 170  ASP170     -0.2456
     19  N         40.4530   40.8310    6.5940 N.am  171  SER171     -0.1938
     20  CA        40.9210   40.4220    7.9140 C.3   171  SER171      0.2055
     21  C         42.4000   40.8020    7.8800 C.2   171  SER171      0.2643
     22  O         42.9040   41.2060    6.8310 O.2   171  SER171     -0.2714
     23  CB        40.7360   38.9140    8.1270 C.3   171  SER171      0.2130
     24  OG        41.2570   38.1720    7.0420 O.3   171  SER171     -0.2179
     25  N         43.1040   40.6670    8.9970 N.am  172  CYS172     -0.1953
     26  CA        44.5060   41.0740    9.0300 C.3   172  CYS172      0.1843
     27  C         45.2700   40.3020   10.1040 C.2   172  CYS172      0.2625
     28  O         44.7090   39.4150   10.7460 O.2   172  CYS172     -0.2714
     29  CB        44.5540   42.5840    9.3070 C.3   172  CYS172      0.0997
     30  SG        46.0970   43.4500    8.8750 S.3   172  CYS172     -0.0797
     31  N         46.5430   40.6380   10.3000 N.am  173  GLN173     -0.1977
     32  CA        47.3490   39.9610   11.3100 C.3   173  GLN173      0.1601
     33  C         46.6640   40.0950   12.6630 C.2   173  GLN173      0.2287
     34  O         46.2310   41.1820   13.0440 O.2   173  GLN173     -0.2864
     35  CB        48.7580   40.5590   11.3840 C.3   173  GLN173      0.0394
     36  CG        49.5310   40.4980   10.0780 C.3   173  GLN173      0.0908
     37  CD        49.2570   41.6910    9.1890 C.2   173  GLN173      0.2608
     38  OE1       49.6070   41.6940    8.0110 O.2   173  GLN173     -0.2717
     39  NE2       48.6410   42.7210    9.7550 N.am  173  GLN173     -0.0878
     40  N         44.1310   35.9760   12.3950 N.3   176  SER176     -0.1217
     41  CA        44.5490   34.6270   12.0200 C.3   176  SER176      0.1889
     42  C         44.0060   33.5590   12.9550 C.2   176  SER176      0.2288
     43  O         44.0660   33.7000   14.1730 O.2   176  SER176     -0.2866
     44  CB        46.0810   34.5340   11.9990 C.3   176  SER176      0.2089
     45  OG        46.6330   35.2570   10.9110 O.3   176  SER176     -0.2183
     46  N         40.6540   32.1530    9.3130 N.3   190  VAL190     -0.1231
     47  CA        41.5320   33.2150    8.8310 C.3   190  VAL190      0.1692
     48  C         42.9370   32.6520    8.6600 C.2   190  VAL190      0.2593
     49  O         43.5460   32.1870    9.6180 O.2   190  VAL190     -0.2718
     50  CB        41.5550   34.3970    9.8180 C.3   190  VAL190      0.0266
     51  CG1       42.4750   35.4920    9.2990 C.3   190  VAL190      0.0020
     52  CG2       40.1420   34.9370   10.0060 C.3   190  VAL190      0.0020
     53  N         43.4500   32.7000    7.4360 N.am  191  SER191     -0.1938
     54  CA        44.7660   32.1450    7.1550 C.3   191  SER191      0.2055
     55  C         45.8300   33.1480    6.7120 C.2   191  SER191      0.2643
     56  O         46.7610   33.4340    7.4670 O.2   191  SER191     -0.2714
     57  CB        44.6280   31.0230    6.1130 C.3   191  SER191      0.2130
     58  OG        45.8610   30.3550    5.8920 O.3   191  SER191     -0.2179
     59  N         45.7060   33.6870    5.5010 N.am  192  TRP192     -0.1959
     60  CA        46.7150   34.6270    5.0210 C.3   192  TRP192      0.1771
     61  C         46.2720   35.6020    3.9300 C.2   192  TRP192      0.2620
     62  O         45.1090   35.6410    3.5260 O.2   192  TRP192     -0.2715
     63  CB        47.9360   33.8560    4.5070 C.3   192  TRP192      0.0590
     64  CG        47.6420   32.9500    3.3370 C.ar  192  TRP192      0.0006
     65  CD1       47.1370   31.6800    3.3880 C.ar  192  TRP192      0.0946
     66  CD2       47.8270   33.2500    1.9460 C.ar  192  TRP192      0.0152
     67  NE1       47.0010   31.1700    2.1190 N.ar  192  TRP192     -0.2442
     68  CE2       47.4170   32.1120    1.2140 C.ar  192  TRP192      0.0810
     69  CE3       48.3040   34.3700    1.2460 C.ar  192  TRP192      0.0012
     70  CZ2       47.4630   32.0610   -0.1850 C.ar  192  TRP192      0.0191
     71  CZ3       48.3500   34.3190   -0.1520 C.ar  192  TRP192      0.0001
     72  CH2       47.9320   33.1690   -0.8480 C.ar  192  TRP192      0.0015
     73  N         47.2410   36.3840    3.4640 N.am  193  GLY193     -0.1940
     74  CA        47.0060   37.3580    2.4140 C.3   193  GLY193      0.2014
     75  C         48.1950   38.2940    2.3160 C.2   193  GLY193      0.2639
     76  O         49.0190   38.3520    3.2340 O.2   193  GLY193     -0.2714
     77  N         48.3060   39.0150    1.2030 N.am  194  TYR194     -0.1959
     78  CA        49.4040   39.9590    1.0280 C.3   194  TYR194      0.1771
     79  C         48.9410   41.2760    1.6200 C.2   194  TYR194      0.2620
     80  O         47.9950   41.8900    1.1220 O.2   194  TYR194     -0.2715
     81  CB        49.7330   40.1340   -0.4550 C.3   194  TYR194      0.0574
     82  CG        50.3430   38.9100   -1.0930 C.ar  194  TYR194     -0.0198
     83  CD1       50.6390   38.8890   -2.4530 C.ar  194  TYR194     -0.0009
     84  CD2       50.6510   37.7800   -0.3300 C.ar  194  TYR194     -0.0009
     85  CE1       51.2320   37.7820   -3.0390 C.ar  194  TYR194      0.0417
     86  CE2       51.2450   36.6670   -0.9080 C.ar  194  TYR194      0.0417
     87  CZ        51.5360   36.6820   -2.2590 C.ar  194  TYR194      0.1957
     88  OH        52.1950   35.6250   -2.8220 O.3   194  TYR194     -0.2866
     89  N         49.6070   41.7080    2.6840 N.am  195  GLY195     -0.1940
     90  CA        49.2050   42.9380    3.3350 C.3   195  GLY195      0.2014
     91  C         47.7950   42.7380    3.8550 C.2   195  GLY195      0.2639
     92  O         47.3920   41.6110    4.1470 O.2   195  GLY195     -0.2714
     93  N         47.0420   43.8250    3.9730 N.am  196  CYS196     -0.1967
     94  CA        45.6670   43.7540    4.4480 C.3   196  CYS196      0.1712
     95  C         44.8170   44.7860    3.7310 C.2   196  CYS196      0.2296
     96  O         45.2060   45.9450    3.6200 O.2   196  CYS196     -0.2864
     97  CB        45.5970   44.0220    5.9500 C.3   196  CYS196      0.0983
     98  SG        46.4770   42.8180    6.9870 S.3   196  CYS196     -0.0798
     99  N         44.4100   41.9680   -3.5150 N.3   201  ASN201     -0.1226
    100  CA        44.9670   40.9960   -2.5670 C.3   201  ASN201      0.1770
    101  C         43.9150   40.6250   -1.5210 C.2   201  ASN201      0.2439
    102  O         43.9820   41.0580   -0.3690 O.2   201  ASN201     -0.2733
    103  CB        46.2080   41.5740   -1.8700 C.3   201  ASN201      0.1168
    104  CG        47.3350   41.8920   -2.8430 C.2   201  ASN201      0.2627
    105  OD1       47.8000   41.0240   -3.5810 O.2   201  ASN201     -0.2716
    106  ND2       47.7830   43.1430   -2.8390 N.am  201  ASN201     -0.0877
    107  N         42.9320   39.8030   -1.9120 N.am  202  PRO202     -0.2718
    108  CA        41.8670   39.3860   -0.9960 C.3   202  PRO202      0.1535
    109  C         42.3670   38.4910    0.1310 C.2   202  PRO202      0.2599
    110  O         43.5010   38.0120    0.1030 O.2   202  PRO202     -0.2715
    111  CB        40.8960   38.6630   -1.9170 C.3   202  PRO202      0.0310
    112  CG        41.8270   37.9950   -2.8950 C.3   202  PRO202      0.0237
    113  CD        42.8270   39.0980   -3.2020 C.3   202  PRO202      0.0939
    114  N         41.5150   38.2710    1.1240 N.am  203  GLY203     -0.1941
    115  CA        41.9000   37.4180    2.2290 C.3   203  GLY203      0.2014
    116  C         41.7760   35.9670    1.8170 C.2   203  GLY203      0.2638
    117  O         40.8760   35.6110    1.0560 O.2   203  GLY203     -0.2714
    118  N         42.6870   35.1310    2.2990 N.am  204  VAL204     -0.1977
    119  CA        42.6450   33.7070    1.9900 C.3   204  VAL204      0.1596
    120  C         42.3180   32.9840    3.2890 C.2   204  VAL204      0.2287
    121  O         42.8810   33.2880    4.3420 O.2   204  VAL204     -0.2864
    122  CB        43.9880   33.2020    1.4480 C.3   204  VAL204      0.0276
    123  CG1       43.8290   31.7770    0.9290 C.3   204  VAL204      0.0022
    124  CG2       44.4790   34.1250    0.3370 C.3   204  VAL204      0.0022
@<TRIPOS>BOND
     1   105   104    2
     2    99   100    1
     3   113   112    1
     4   113   107    1
     5    85    83   ar
     6    85    87   ar
     7   112   111    1
     8   104   106   am
     9   104   103    1
    10    88    87    1
    11   100   103    1
    12   100   101    1
    13    83    82   ar
    14    87    86   ar
    15   111   108    1
    16   107   101   am
    17   107   108    1
    18   101   102    2
    19    82    81    1
    20    82    84   ar
    21   108   109    1
    22    86    84   ar
    23    72    70   ar
    24    72    71   ar
    25    81    78    1
    26    70    68   ar
    27    71    69   ar
    28   110   109    2
    29   109   114   am
    30   124   122    1
    31   123   122    1
    32    78    77    1
    33    78    79    1
    34   117   116    2
    35    80    79    2
    36   114   115    1
    37    77    75   am
    38    68    66   ar
    39    68    67   ar
    40    69    66   ar
    41   122   119    1
    42    79    89   am
    43   116   115    1
    44   116   118   am
    45    66    64   ar
    46   119   118    1
    47   119   120    1
    48    67    65   ar
    49    75    74    1
    50    75    76    2
    51    74    73    1
    52    89    90    1
    53   120   121    2
    54    90    91    1
    55    64    65   ar
    56    64    63    1
    57    73    61   am
    58    62    61    2
    59    18    16   ar
    60    96    95    2
    61    95    94    1
    62    91    93   am
    63    91    92    2
    64    16    15    1
    65    16    17   ar
    66    61    60    1
    67    93    94    1
    68    15    12    1
    69    94    97    1
    70    63    60    1
    71    11    12    1
    72    12    13    1
    73    60    59    1
    74    59    55   am
    75    58    57    1
    76    97    98    1
    77    57    54    1
    78    13    19   am
    79    13    14    2
    80    19    20    1
    81    55    54    1
    82    55    56    2
    83    22    21    2
    84    98    30    1
    85    24    23    1
    86    54    53    1
    87    53    48   am
    88    21    20    1
    89    21    25   am
    90    20    23    1
    91    38    37    2
    92    48    47    1
    93    48    49    2
    94    47    46    1
    95    47    50    1
    96    30    29    1
    97    25    26    1
    98    26    29    1
    99    26    27    1
   100    37    39   am
   101    37    36    1
   102    51    50    1
   103    50    52    1
   104     7     9   ar
   105     7     6   ar
   106     9    10   ar
   107    36    35    1
   108    27    31   am
   109    27    28    2
   110    31    32    1
   111     5     6    1
   112     5     2    1
   113     6     8   ar
   114    10     8   ar
   115    45    44    1
   116    32    35    1
   117    32    33    1
   118     1     2    1
   119     2     3    1
   120    44    41    1
   121    41    40    1
   122    41    42    1
   123    33    34    2
   124     3     4    2
   125    42    43    2
