@<TRIPOS>MOLECULE
tmp/2zpuA00.pdb
 186 177 0 0 0
SMALL
GASTEIGER

@<TRIPOS>ATOM
      1  N         13.3710    0.0690   24.0560 N.3    51  ALA51      -0.1231
      2  CA        13.8980    0.1970   22.7030 C.3    51  ALA51       0.1694
      3  C         13.5770    1.5680   22.1220 C.2    51  ALA51       0.2592
      4  O         12.7070    2.2850   22.6240 O.2    51  ALA51      -0.2718
      5  CB        13.3350   -0.9060   21.8040 C.3    51  ALA51       0.0304
      6  N         14.2870    1.9270   21.0580 N.am   52  PHE52      -0.1962
      7  CA        14.1050    3.2210   20.4120 C.3    52  PHE52       0.1771
      8  C         12.6970    3.4280   19.8510 C.2    52  PHE52       0.2619
      9  O         12.2540    4.5600   19.6840 O.2    52  PHE52      -0.2715
     10  CB        15.1180    3.3700   19.2750 C.3    52  PHE52       0.0574
     11  CG        14.8000    2.5290   18.0660 C.ar   52  PHE52      -0.0200
     12  CD1       14.0320    3.0430   17.0250 C.ar   52  PHE52      -0.0042
     13  CD2       15.2720    1.2230   17.9680 C.ar   52  PHE52      -0.0042
     14  CE1       13.7400    2.2680   15.9000 C.ar   52  PHE52      -0.0003
     15  CE2       14.9890    0.4430   16.8570 C.ar   52  PHE52      -0.0003
     16  CZ        14.2200    0.9660   15.8140 C.ar   52  PHE52      -0.0000
     17  N         12.0070    2.3280   19.5680 N.am   53  LYS53      -0.1977
     18  CA        10.6700    2.3650   18.9700 C.3    53  LYS53       0.1596
     19  C          9.6290    3.2840   19.5940 C.2    53  LYS53       0.2287
     20  O          8.7010    3.7200   18.9070 O.2    53  LYS53      -0.2864
     21  CB        10.1000    0.9500   18.8980 C.3    53  LYS53       0.0298
     22  CG        10.8120    0.0360   17.9180 C.3    53  LYS53       0.0038
     23  CD        10.5180    0.3980   16.4730 C.3    53  LYS53       0.0206
     24  CE        11.0480   -0.7020   15.5660 C.3    53  LYS53       0.1093
     25  NZ        10.5110   -0.8790   14.2030 N.3    53  LYS53      -0.1314
     26  N          4.3580   -6.0650   14.0210 N.3    77  SER77      -0.1202
     27  CA         5.7030   -5.8420   14.5290 C.3    77  SER77       0.2020
     28  C          6.3680   -7.0830   15.1010 C.2    77  SER77       0.2619
     29  O          5.6960   -7.9710   15.6280 O.2    77  SER77      -0.2717
     30  CB         5.6310   -4.7680   15.6140 C.3    77  SER77       0.2103
     31  OG         6.7810   -4.7780   16.4360 O.3    77  SER77      -0.2182
     32  N          7.6940   -7.1240   15.0060 N.am   78  SER78      -0.1951
     33  CA         8.4620   -8.2400   15.5440 C.3    78  SER78       0.1924
     34  C          8.4260   -8.2060   17.0690 C.2    78  SER78       0.2314
     35  O          8.7940   -9.1770   17.7280 O.2    78  SER78      -0.2863
     36  CB         9.9100   -8.1820   15.0500 C.3    78  SER78       0.2116
     37  OG        10.4550   -6.8910   15.2360 O.3    78  SER78      -0.2180
     38  N          9.1390   -4.9310   19.3060 N.3    80  ASN80      -0.1225
     39  CA         9.4050   -3.6530   19.9390 C.3    80  ASN80       0.1785
     40  C          8.4440   -2.5490   19.5110 C.2    80  ASN80       0.2597
     41  O          7.9780   -1.7810   20.3500 O.2    80  ASN80      -0.2718
     42  CB        10.8720   -3.2580   19.7340 C.3    80  ASN80       0.1169
     43  CG        11.8030   -4.0660   20.6210 C.2    80  ASN80       0.2627
     44  OD1       11.4390   -4.4110   21.7460 O.2    80  ASN80      -0.2716
     45  ND2       13.0070   -4.3660   20.1300 N.am   80  ASN80      -0.0877
     46  N          8.1360   -2.4620   18.2210 N.am   81  HIS81      -0.1975
     47  CA         7.1870   -1.4540   17.7620 C.3    81  HIS81       0.1656
     48  C          5.8380   -1.8190   18.3910 C.2    81  HIS81       0.2291
     49  O          5.0330   -0.9470   18.7150 O.2    81  HIS81      -0.2864
     50  CB         7.0870   -1.4750   16.2340 C.3    81  HIS81       0.0771
     51  CG         6.1680   -0.4370   15.6670 C.ar   81  HIS81       0.0820
     52  ND1        6.4010    0.9170   15.7890 N.ar   81  HIS81      -0.2267
     53  CD2        5.0290   -0.5580   14.9440 C.ar   81  HIS81       0.1154
     54  CE1        5.4470    1.5830   15.1630 C.ar   81  HIS81       0.1986
     55  NE2        4.6030    0.7120   14.6420 N.ar   81  HIS81      -0.2212
     56  N          8.4770   -9.6430   24.8820 N.3   108  LYS108     -0.1245
     57  CA         7.9160   -8.6080   24.0180 C.3   108  LYS108      0.1561
     58  C          6.4090   -8.7940   23.8620 C.2   108  LYS108      0.2260
     59  O          5.6590   -7.8200   23.8080 O.2   108  LYS108     -0.2867
     60  CB         8.5930   -8.6220   22.6410 C.3   108  LYS108      0.0271
     61  CG        10.0780   -8.2580   22.6740 C.3   108  LYS108      0.0035
     62  CD        10.6520   -8.1490   21.2680 C.3   108  LYS108      0.0206
     63  CE        12.1480   -7.8530   21.3030 C.3   108  LYS108      0.1093
     64  NZ        12.7220   -7.7850   19.9320 N.3   108  LYS108     -0.1314
     65  N          2.3400  -10.8010    6.6990 N.3   129  ARG129     -0.1245
     66  CA         1.7590   -9.9990    7.7630 C.3   129  ARG129      0.1563
     67  C          1.1130   -8.7010    7.2860 C.2   129  ARG129      0.2260
     68  O          0.1840   -8.2040    7.9150 O.2   129  ARG129     -0.2867
     69  CB         2.8170   -9.6840    8.8190 C.3   129  ARG129      0.0307
     70  CG         3.9590   -8.8340    8.3060 C.3   129  ARG129      0.0489
     71  CD         4.9810   -8.6140    9.4030 C.3   129  ARG129      0.2205
     72  NE         5.9820   -7.6250    9.0160 N.pl3 129  ARG129     -0.0865
     73  CZ         6.7840   -7.0090    9.8770 C.cat 129  ARG129      0.5346
     74  NH1        6.7040   -7.2870   11.1710 N.pl3 129  ARG129      0.1354
     75  NH2        7.6430   -6.0910    9.4490 N.pl3 129  ARG129      0.1354
     76  N          5.5860   -0.3750   11.3100 N.3   147  PRO147     -0.2102
     77  CA         6.7720   -0.4390   12.1700 C.3   147  PRO147      0.1504
     78  C          7.9860    0.3420   11.6660 C.2   147  PRO147      0.2575
     79  O          8.9010    0.6230   12.4390 O.2   147  PRO147     -0.2718
     80  CB         7.0230   -1.9430   12.2940 C.3   147  PRO147      0.0282
     81  CG         6.5360   -2.4750   10.9820 C.3   147  PRO147      0.0208
     82  CD         5.2440   -1.7120   10.7920 C.3   147  PRO147      0.0893
     83  N          7.9940    0.7020   10.3840 N.am  148  TYR148     -0.1977
     84  CA         9.1050    1.4820    9.8450 C.3   148  TYR148      0.1639
     85  C          8.8130    2.2760    8.5820 C.2   148  TYR148      0.2290
     86  O          9.2770    3.4030    8.4530 O.2   148  TYR148     -0.2864
     87  CB        10.3420    0.5970    9.6110 C.3   148  TYR148      0.0560
     88  CG        10.0710   -0.7140    8.9080 C.ar  148  TYR148     -0.0198
     89  CD1        9.9420   -0.7810    7.5190 C.ar  148  TYR148     -0.0009
     90  CD2        9.9150   -1.8870    9.6420 C.ar  148  TYR148     -0.0009
     91  CE1        9.6610   -1.9950    6.8830 C.ar  148  TYR148      0.0417
     92  CE2        9.6320   -3.0960    9.0200 C.ar  148  TYR148      0.0417
     93  CZ         9.5070   -3.1440    7.6470 C.ar  148  TYR148      0.1957
     94  OH         9.2200   -4.3490    7.0520 O.3   148  TYR148     -0.2866
     95  N         12.1440    7.9740   14.9530 N.3   157  GLN157     -0.1245
     96  CA        13.3090    7.1670   15.3130 C.3   157  GLN157      0.1566
     97  C         14.5680    8.0190   15.2370 C.2   157  GLN157      0.2260
     98  O         15.5170    7.8100   15.9900 O.2   157  GLN157     -0.2867
     99  CB        13.4530    5.9730   14.3640 C.3   157  GLN157      0.0367
    100  CG        12.1330    5.3330   13.9410 C.3   157  GLN157      0.0905
    101  CD        11.3370    4.7180   15.0890 C.2   157  GLN157      0.2608
    102  OE1       11.3070    5.2410   16.2080 O.2   157  GLN157     -0.2717
    103  NE2       10.6640    3.6100   14.8030 N.am  157  GLN157     -0.0878
    104  N         21.6420   -0.0460   13.5140 N.3   177  CYS177     -0.1221
    105  CA        21.0560   -1.3670   13.2630 C.3   177  CYS177      0.1808
    106  C         20.0430   -1.2500   12.1170 C.2   177  CYS177      0.2601
    107  O         19.3550   -0.2380   12.0090 O.2   177  CYS177     -0.2717
    108  CB        20.3610   -1.8620   14.5350 C.3   177  CYS177      0.0970
    109  SG        21.3250   -1.6180   16.0670 S.3   177  CYS177     -0.0800
    110  N         19.9400   -2.2770   11.2700 N.am  178  LEU178     -0.1965
    111  CA        19.0190   -2.2120   10.1330 C.3   178  LEU178      0.1728
    112  C         18.0850   -3.4000    9.9050 C.2   178  LEU178      0.2617
    113  O         18.5260   -4.5210    9.6670 O.2   178  LEU178     -0.2715
    114  CB        19.8030   -1.9660    8.8330 C.3   178  LEU178      0.0311
    115  CG        19.0110   -1.9970    7.5180 C.3   178  LEU178      0.0022
    116  CD1       17.9420   -0.9110    7.5260 C.3   178  LEU178      0.0001
    117  CD2       19.9500   -1.7910    6.3450 C.3   178  LEU178      0.0001
    118  N         16.7880   -3.1160    9.9660 N.am  179  GLY179     -0.1940
    119  CA        15.7580   -4.1060    9.7080 C.3   179  GLY179      0.2014
    120  C         15.0290   -3.5520    8.4930 C.2   179  GLY179      0.2639
    121  O         15.5110   -3.6800    7.3670 O.2   179  GLY179     -0.2714
    122  N         13.8900   -2.9060    8.7300 N.am  180  GLY180     -0.1939
    123  CA        13.1190   -2.3090    7.6510 C.3   180  GLY180      0.2014
    124  C         13.6540   -0.9580    7.1950 C.2   180  GLY180      0.2639
    125  O         13.2860   -0.4670    6.1180 O.2   180  GLY180     -0.2714
    126  N         14.5060   -0.3430    8.0150 N.am  181  GLY181     -0.1939
    127  CA        15.0880    0.9390    7.6540 C.3   181  GLY181      0.2014
    128  C         14.5760    2.1900    8.3480 C.2   181  GLY181      0.2639
    129  O         15.0250    3.2960    8.0240 O.2   181  GLY181     -0.2714
    130  N         13.6410    2.0360    9.2870 N.am  182  GLY182     -0.1939
    131  CA        13.1100    3.1890    9.9940 C.3   182  GLY182      0.2014
    132  C         14.1600    3.8860   10.8400 C.2   182  GLY182      0.2639
    133  O         14.3430    5.1030   10.7540 O.2   182  GLY182     -0.2714
    134  N         14.8580    3.1160   11.6630 N.am  183  LEU183     -0.1963
    135  CA        15.8870    3.6910   12.5190 C.3   183  LEU183      0.1728
    136  C         17.0150    4.2890   11.6790 C.2   183  LEU183      0.2616
    137  O         17.4740    5.4040   11.9460 O.2   183  LEU183     -0.2715
    138  CB        16.4420    2.6270   13.4680 C.3   183  LEU183      0.0311
    139  CG        17.6080    3.0530   14.3670 C.3   183  LEU183      0.0022
    140  CD1       17.1640    4.1430   15.3470 C.3   183  LEU183      0.0001
    141  CD2       18.1160    1.8340   15.1210 C.3   183  LEU183      0.0001
    142  N         17.4490    3.5590   10.6540 N.am  184  LEU184     -0.1977
    143  CA        18.5310    4.0320    9.7970 C.3   184  LEU184      0.1596
    144  C         18.1580    5.2780    8.9980 C.2   184  LEU184      0.2287
    145  O         18.9320    6.2360    8.9450 O.2   184  LEU184     -0.2864
    146  CB        18.9830    2.9250    8.8360 C.3   184  LEU184      0.0297
    147  CG        20.1270    3.2910    7.8790 C.3   184  LEU184      0.0022
    148  CD1       21.3450    3.7420    8.6650 C.3   184  LEU184      0.0001
    149  CD2       20.4730    2.0900    7.0110 C.3   184  LEU184      0.0001
    150  N         14.8020   -8.5960   15.5880 N.3   232  GLY232     -0.1225
    151  CA        14.2100   -7.3300   15.1880 C.3   232  GLY232      0.1811
    152  C         14.7310   -6.9110   13.8230 C.2   232  GLY232      0.2280
    153  O         14.5130   -5.7830   13.3830 O.2   232  GLY232     -0.2866
    154  N         13.4160   -8.8110    8.6210 N.3   235  THR235     -0.1218
    155  CA        12.5740   -8.2770    7.5560 C.3   235  THR235      0.1862
    156  C         12.9570   -8.8530    6.1920 C.2   235  THR235      0.2287
    157  O         14.1280   -9.1300    5.9390 O.2   235  THR235     -0.2866
    158  CB        12.6960   -6.7480    7.5090 C.3   235  THR235      0.1770
    159  OG1       14.0210   -6.3740    7.9110 O.3   235  THR235     -0.2211
    160  CG2       11.6760   -6.1000    8.4410 C.3   235  THR235      0.0375
    161  N         19.7810   -6.5360   23.4660 N.3   277  GLU277     -0.1245
    162  CA        19.2710   -7.6840   22.7260 C.3   277  GLU277      0.1567
    163  C         20.1380   -7.8740   21.4900 C.2   277  GLU277      0.2260
    164  O         20.8000   -6.9370   21.0400 O.2   277  GLU277     -0.2867
    165  CB        17.7890   -7.4940   22.3560 C.3   277  GLU277      0.0388
    166  CG        17.4350   -6.2330   21.6020 C.3   277  GLU277      0.1160
    167  CD        15.9490   -6.1610   21.2970 C.2   277  GLU277      0.3649
    168  OE1       15.4790   -6.9380   20.4340 O.co2 277  GLU277     -0.2457
    169  OE2       15.2540   -5.3320   21.9240 O.co2 277  GLU277     -0.2457
    170  N         19.6840   -7.9220   18.2880 N.3   279  THR279     -0.1218
    171  CA        19.5320   -6.9420   17.2190 C.3   279  THR279      0.1862
    172  C         20.2120   -5.6090   17.5590 C.2   279  THR279      0.2287
    173  O         20.7260   -4.9200   16.6740 O.2   279  THR279     -0.2866
    174  CB        18.0380   -6.7000   16.8970 C.3   279  THR279      0.1770
    175  OG1       17.3840   -7.9610   16.6940 O.3   279  THR279     -0.2211
    176  CG2       17.8930   -5.8730   15.6270 C.3   279  THR279      0.0375
    177  N         20.1630    0.0600   19.9930 N.3   304  SER304     -0.1202
    178  CA        18.7310    0.0860   19.6920 C.3   304  SER304      0.2020
    179  C         17.7300   -0.4390   20.7130 C.2   304  SER304      0.2619
    180  O         16.6240    0.0920   20.8180 O.2   304  SER304     -0.2717
    181  CB        18.4820   -0.6100   18.3490 C.3   304  SER304      0.2103
    182  OG        18.8520   -1.9790   18.4070 O.3   304  SER304     -0.2182
    183  N         18.0910   -1.4780   21.4530 N.am  305  GLY305     -0.1956
    184  CA        17.1570   -2.0190   22.4260 C.3   305  GLY305      0.1869
    185  C         17.7460   -3.0840   23.3220 C.2   305  GLY305      0.2309
    186  O         18.8500   -3.5810   23.0760 O.2   305  GLY305     -0.2863
@<TRIPOS>BOND
     1   157   156    2
     2   125   124    2
     3   156   155    1
     4   117   115    1
     5    65    66    1
     6    91    89   ar
     7    91    93   ar
     8   149   147    1
     9    94    93    1
    10   124   123    1
    11   124   126   am
    12    67    66    1
    13    67    68    2
    14   121   120    2
    15   158   155    1
    16   158   159    1
    17   158   160    1
    18   115   116    1
    19   115   114    1
    20    89    88   ar
    21   155   154    1
    22    93    92   ar
    23   123   122    1
    24   127   126    1
    25   127   128    1
    26    66    69    1
    27   147   148    1
    28   147   146    1
    29   129   128    2
    30    70    69    1
    31    70    71    1
    32   128   130   am
    33    86    85    2
    34   120   122   am
    35   120   119    1
    36    85    84    1
    37   114   111    1
    38   146   143    1
    39    88    87    1
    40    88    90   ar
    41   145   144    2
    42   144   143    1
    43    72    71    1
    44    72    73    2
    45    92    90   ar
    46   130   131    1
    47    75    73    1
    48    87    84    1
    49   113   112    2
    50   119   118    1
    51   143   142    1
    52    84    83    1
    53    73    74    1
    54   112   118   am
    55   112   111    1
    56   131   132    1
    57   111   110    1
    58    83    78   am
    59   142   136   am
    60   133   132    2
    61    82    81    1
    62    82    76    1
    63   132   134   am
    64    81    80    1
    65   110   106   am
    66    76    77    1
    67   134   135    1
    68    78    77    1
    69    78    79    2
    70   136   137    2
    71   136   135    1
    72   107   106    2
    73   106   105    1
    74    77    80    1
    75   135   138    1
    76   105   104    1
    77   105   108    1
    78   153   152    2
    79   138   139    1
    80   152   151    1
    81   100    99    1
    82   100   101    1
    83    26    27    1
    84    25    24    1
    85    99    96    1
    86   139   141    1
    87   139   140    1
    88    27    28    1
    89    27    30    1
    90   108   109    1
    91    55    53   ar
    92    55    54   ar
    93   103   101   am
    94    53    51   ar
    95    95    96    1
    96    32    28   am
    97    32    33    1
    98    36    37    1
    99    36    33    1
   100   101   102    2
   101    28    29    2
   102    54    52   ar
   103   151   150    1
   104    97    96    1
   105    97    98    2
   106    33    34    1
   107    24    23    1
   108    30    31    1
   109   176   174    1
   110    51    52   ar
   111    51    50    1
   112    16    14   ar
   113    16    15   ar
   114    14    12   ar
   115    50    47    1
   116    23    22    1
   117   173   172    2
   118   175   174    1
   119    15    13   ar
   120   174   171    1
   121    12    11   ar
   122    34    35    2
   123   171   172    1
   124   171   170    1
   125    47    46    1
   126    47    48    1
   127    22    21    1
   128    13    11   ar
   129    11    10    1
   130    46    40   am
   131   181   182    1
   132   181   178    1
   133    48    49    2
   134    21    18    1
   135    20    19    2
   136    18    17    1
   137    18    19    1
   138    10     7    1
   139    38    39    1
   140    40    39    1
   141    40    41    2
   142    17     8   am
   143     9     8    2
   144   178   177    1
   145   178   179    1
   146    42    39    1
   147    42    43    1
   148     8     7    1
   149    64    63    1
   150    45    43   am
   151     7     6    1
   152   168   167   ar
   153    43    44    2
   154   179   180    2
   155   179   183   am
   156   164   163    2
   157     6     3   am
   158    62    63    1
   159    62    61    1
   160   167   166    1
   161   167   169   ar
   162   183   184    1
   163   163   162    1
   164   166   165    1
   165     5     2    1
   166     3     4    2
   167     3     2    1
   168   165   162    1
   169   184   185    1
   170    60    61    1
   171    60    57    1
   172     2     1    1
   173   162   161    1
   174   186   185    2
   175    59    58    2
   176    58    57    1
   177    57    56    1
