@<TRIPOS>MOLECULE
tmp/2zpyA00.pdb
 153 148 0 0 0
SMALL
GASTEIGER

@<TRIPOS>ATOM
      1  N         62.2530   95.0560  109.6460 N.3   240  TRP240     -0.1227
      2  CA        61.2360   95.8110  110.3680 C.3   240  TRP240      0.1737
      3  C         61.1900   95.4400  111.8510 C.2   240  TRP240      0.2596
      4  O         61.0910   96.3140  112.7150 O.2   240  TRP240     -0.2718
      5  CB        59.8470   95.5630  109.7630 C.3   240  TRP240      0.0564
      6  CG        59.7080   95.9290  108.3110 C.ar  240  TRP240      0.0003
      7  CD1       59.2260   95.1330  107.3160 C.ar  240  TRP240      0.0946
      8  CD2       60.0320   97.1850  107.7000 C.ar  240  TRP240      0.0152
      9  NE1       59.2280   95.8090  106.1220 N.ar  240  TRP240     -0.2442
     10  CE2       59.7190   97.0720  106.3270 C.ar  240  TRP240      0.0810
     11  CE3       60.5570   98.3950  108.1770 C.ar  240  TRP240      0.0012
     12  CZ2       59.9160   98.1230  105.4200 C.ar  240  TRP240      0.0191
     13  CZ3       60.7540   99.4450  107.2750 C.ar  240  TRP240      0.0001
     14  CH2       60.4320   99.2970  105.9110 C.ar  240  TRP240      0.0015
     15  N         61.2590   94.1410  112.1320 N.am  241  SER241     -0.1952
     16  CA        61.1870   93.6330  113.4990 C.3   241  SER241      0.1924
     17  C         62.3040   94.1000  114.4210 C.2   241  SER241      0.2314
     18  O         62.1820   94.0040  115.6430 O.2   241  SER241     -0.2863
     19  CB        61.1390   92.1010  113.4900 C.3   241  SER241      0.2116
     20  OG        62.2470   91.5440  112.8040 O.3   241  SER241     -0.2180
     21  N         63.5250   97.1970  114.0340 N.3   243  ILE243     -0.1231
     22  CA        63.4130   98.6420  114.0160 C.3   243  ILE243      0.1692
     23  C         62.3680   99.1640  114.9810 C.2   243  ILE243      0.2592
     24  O         61.2050   98.7560  114.9430 O.2   243  ILE243     -0.2718
     25  CB        63.0790   99.1600  112.5950 C.3   243  ILE243      0.0266
     26  CG1       64.2070   98.7850  111.6330 C.3   243  ILE243      0.0019
     27  CG2       62.8870  100.6780  112.6170 C.3   243  ILE243      0.0020
     28  CD1       63.9700   99.2290  110.2040 C.3   243  ILE243      0.0001
     29  N         62.8010  100.0690  115.8530 N.am  244  ARG244     -0.1966
     30  CA        61.9150  100.6920  116.8200 C.3   244  ARG244      0.1729
     31  C         61.1340  101.7100  116.0020 C.2   244  ARG244      0.2616
     32  O         59.9170  101.6010  115.8430 O.2   244  ARG244     -0.2715
     33  CB        62.7350  101.3990  117.9000 C.3   244  ARG244      0.0348
     34  CG        61.9320  101.9950  119.0450 C.3   244  ARG244      0.0492
     35  CD        62.8210  102.9040  119.8810 C.3   244  ARG244      0.2205
     36  NE        64.0480  102.2300  120.3040 N.pl3 244  ARG244     -0.0865
     37  CZ        65.1430  102.8590  120.7220 C.cat 244  ARG244      0.5346
     38  NH1       65.1700  104.1850  120.7740 N.pl3 244  ARG244      0.1354
     39  NH2       66.2140  102.1650  121.0880 N.pl3 244  ARG244      0.1354
     40  N         61.8560  102.6930  115.4730 N.am  245  ASN245     -0.1958
     41  CA        61.2640  103.7290  114.6410 C.3   245  ASN245      0.1819
     42  C         62.3050  104.2590  113.6510 C.2   245  ASN245      0.2621
     43  O         63.4870  103.9010  113.7150 O.2   245  ASN245     -0.2715
     44  CB        60.7220  104.8780  115.5030 C.3   245  ASN245      0.1195
     45  CG        61.8220  105.7500  116.0880 C.2   245  ASN245      0.2630
     46  OD1       62.5540  106.4200  115.3600 O.2   245  ASN245     -0.2716
     47  ND2       61.9390  105.7480  117.4110 N.am  245  ASN245     -0.0877
     48  N         61.8460  105.0990  112.7300 N.am  246  ILE246     -0.1963
     49  CA        62.6980  105.7060  111.7150 C.3   246  ILE246      0.1727
     50  C         62.2500  107.1490  111.5520 C.2   246  ILE246      0.2617
     51  O         61.0570  107.4270  111.4740 O.2   246  ILE246     -0.2715
     52  CB        62.5570  104.9970  110.3390 C.3   246  ILE246      0.0290
     53  CG1       63.0620  103.5570  110.4200 C.3   246  ILE246      0.0022
     54  CG2       63.3430  105.7500  109.2870 C.3   246  ILE246      0.0023
     55  CD1       62.8300  102.7490  109.1520 C.3   246  ILE246      0.0001
     56  N         63.2030  108.0680  111.5010 N.am  247  SER247     -0.1936
     57  CA        62.8740  109.4770  111.3390 C.3   247  SER247      0.2055
     58  C         63.9610  110.1810  110.5510 C.2   247  SER247      0.2643
     59  O         65.0690  109.6700  110.4090 O.2   247  SER247     -0.2714
     60  CB        62.7400  110.1440  112.7060 C.3   247  SER247      0.2130
     61  OG        63.9890  110.1560  113.3760 O.3   247  SER247     -0.2179
     62  N         63.6400  111.3560  110.0270 N.am  248  PHE248     -0.1959
     63  CA        64.6270  112.1150  109.2850 C.3   248  PHE248      0.1771
     64  C         64.5010  113.5940  109.5990 C.2   248  PHE248      0.2620
     65  O         63.4030  114.1140  109.7980 O.2   248  PHE248     -0.2715
     66  CB        64.5050  111.8550  107.7730 C.3   248  PHE248      0.0574
     67  CG        63.2960  112.4780  107.1230 C.ar  248  PHE248     -0.0200
     68  CD1       63.2480  113.8490  106.8690 C.ar  248  PHE248     -0.0042
     69  CD2       62.2210  111.6870  106.7280 C.ar  248  PHE248     -0.0042
     70  CE1       62.1490  114.4230  106.2300 C.ar  248  PHE248     -0.0003
     71  CE2       61.1170  112.2490  106.0870 C.ar  248  PHE248     -0.0003
     72  CZ        61.0810  113.6200  105.8370 C.ar  248  PHE248     -0.0000
     73  N         65.6460  114.2550  109.6760 N.am  249  ASN249     -0.1958
     74  CA        65.6980  115.6770  109.9610 C.3   249  ASN249      0.1819
     75  C         66.3890  116.3310  108.7890 C.2   249  ASN249      0.2621
     76  O         67.6210  116.3780  108.7300 O.2   249  ASN249     -0.2715
     77  CB        66.4940  115.9440  111.2360 C.3   249  ASN249      0.1195
     78  CG        66.7460  117.4190  111.4580 C.2   249  ASN249      0.2630
     79  OD1       65.8080  118.2060  111.5860 O.2   249  ASN249     -0.2716
     80  ND2       68.0170  117.8050  111.4950 N.am  249  ASN249     -0.0877
     81  N         65.5870  116.8290  107.8560 N.am  250  ASP250     -0.1971
     82  CA        66.1100  117.4670  106.6630 C.3   250  ASP250      0.1709
     83  C         66.9470  116.4560  105.8780 C.2   250  ASP250      0.2293
     84  O         66.3970  115.6640  105.1160 O.2   250  ASP250     -0.2864
     85  CB        66.9500  118.6880  107.0440 C.3   250  ASP250      0.1436
     86  CG        67.5860  119.3460  105.8450 C.2   250  ASP250      0.3671
     87  OD1       66.9000  119.4550  104.8040 O.co2 250  ASP250     -0.2456
     88  OD2       68.7620  119.7580  105.9440 O.co2 250  ASP250     -0.2456
     89  N         65.1370   98.5890  118.1600 N.3   258  ILE258     -0.1245
     90  CA        64.3610   98.1880  119.3300 C.3   258  ILE258      0.1561
     91  C         65.3320   97.8270  120.4480 C.2   258  ILE258      0.2260
     92  O         65.1800   98.2590  121.5930 O.2   258  ILE258     -0.2867
     93  CB        63.4830   96.9510  119.0340 C.3   258  ILE258      0.0252
     94  CG1       62.4910   97.2660  117.9150 C.3   258  ILE258      0.0019
     95  CG2       62.7390   96.5300  120.2940 C.3   258  ILE258      0.0019
     96  CD1       61.5650   96.1160  117.5770 C.3   258  ILE258      0.0001
     97  N         66.6940  116.8390  100.6390 N.3   272  LEU272     -0.1245
     98  CA        65.5220  116.5370  101.4470 C.3   272  LEU272      0.1561
     99  C         64.5420  115.7230  100.6140 C.2   272  LEU272      0.2260
    100  O         63.8180  114.8880  101.1460 O.2   272  LEU272     -0.2867
    101  CB        64.8570  117.8270  101.9380 C.3   272  LEU272      0.0270
    102  CG        63.6110  117.6830  102.8230 C.3   272  LEU272      0.0019
    103  CD1       63.9270  116.8630  104.0550 C.3   272  LEU272      0.0001
    104  CD2       63.1120  119.0590  103.2200 C.3   272  LEU272      0.0001
    105  N         62.5570  112.3300  101.7580 N.3   276  LYS276     -0.1245
    106  CA        61.1040  112.2290  101.7160 C.3   276  LYS276      0.1561
    107  C         60.7230  110.9760  100.9350 C.2   276  LYS276      0.2260
    108  O         59.7950  110.2600  101.3020 O.2   276  LYS276     -0.2867
    109  CB        60.4940  113.4680  101.0580 C.3   276  LYS276      0.0271
    110  CG        60.6700  114.7500  101.8650 C.3   276  LYS276      0.0035
    111  CD        60.0490  115.9400  101.1520 C.3   276  LYS276      0.0206
    112  CE        60.6750  116.1420   99.7790 C.3   276  LYS276      0.1093
    113  NZ        60.0070  117.2140   98.9890 N.3   276  LYS276     -0.1314
    114  N         61.4280  107.8500  103.1910 N.3   279  LEU279     -0.1245
    115  CA        60.4240  107.6990  104.2310 C.3   279  LEU279      0.1561
    116  C         59.1250  107.1510  103.6360 C.2   279  LEU279      0.2260
    117  O         58.5070  106.2530  104.2060 O.2   279  LEU279     -0.2867
    118  CB        60.1740  109.0490  104.9100 C.3   279  LEU279      0.0270
    119  CG        59.6030  109.0000  106.3310 C.3   279  LEU279      0.0019
    120  CD1       58.1830  108.4440  106.3190 C.3   279  LEU279      0.0001
    121  CD2       60.5210  108.1500  107.2050 C.3   279  LEU279      0.0001
    122  N         59.4450  103.5980  102.8930 N.3   282  CYS282     -0.1221
    123  CA        59.5110  102.8810  104.1700 C.3   282  CYS282      0.1808
    124  C         58.0960  102.7050  104.7240 C.2   282  CYS282      0.2601
    125  O         57.7200  101.6310  105.1760 O.2   282  CYS282     -0.2717
    126  CB        60.3580  103.6580  105.1850 C.3   282  CYS282      0.0970
    127  SG        62.1470  103.5530  104.9260 S.3   282  CYS282     -0.0800
    128  N         57.3140  103.7740  104.6840 N.am  283  MET283     -0.1979
    129  CA        55.9500  103.7220  105.1830 C.3   283  MET283      0.1605
    130  C         55.1140  102.7280  104.3780 C.2   283  MET283      0.2287
    131  O         54.4700  101.8440  104.9470 O.2   283  MET283     -0.2864
    132  CB        55.3170  105.1060  105.1100 C.3   283  MET283      0.0413
    133  CG        53.9940  105.2120  105.8400 C.3   283  MET283      0.0598
    134  SD        53.2570  106.8350  105.6330 S.3   283  MET283     -0.1393
    135  CE        54.5500  107.8940  106.3570 C.3   283  MET283      0.0692
    136  N         56.3380   98.9470  104.8620 N.3   286  HIS286     -0.1241
    137  CA        56.0120   98.4160  106.1720 C.3   286  HIS286      0.1621
    138  C         54.5210   98.1350  106.2700 C.2   286  HIS286      0.2264
    139  O         54.1130   97.0980  106.7870 O.2   286  HIS286     -0.2867
    140  CB        56.4120   99.3920  107.2740 C.3   286  HIS286      0.0745
    141  CG        56.2960   98.8080  108.6430 C.ar  286  HIS286      0.0817
    142  ND1       56.9500   97.6550  109.0210 N.ar  286  HIS286     -0.2268
    143  CD2       55.6260   99.2390  109.7370 C.ar  286  HIS286      0.1154
    144  CE1       56.6870   97.4030  110.2910 C.ar  286  HIS286      0.1986
    145  NE2       55.8870   98.3490  110.7480 N.ar  286  HIS286     -0.2212
    146  N         52.7360   94.5530  107.2160 N.3   290  MET290     -0.1245
    147  CA        51.7870   94.2720  108.2880 C.3   290  MET290      0.1570
    148  C         50.4300   93.7580  107.8130 C.2   290  MET290      0.2261
    149  O         49.7300   93.0710  108.5590 O.2   290  MET290     -0.2867
    150  CB        51.5680   95.5140  109.1430 C.3   290  MET290      0.0387
    151  CG        52.7920   95.9740  109.8880 C.3   290  MET290      0.0595
    152  SD        52.3460   97.2790  111.0260 S.3   290  MET290     -0.1393
    153  CE        51.8090   98.5670  109.8830 C.3   290  MET290      0.0692
@<TRIPOS>BOND
     1   113   112    1
     2   112   111    1
     3    99   100    2
     4    99    98    1
     5    97    98    1
     6   107   108    2
     7   107   106    1
     8   109   106    1
     9   109   110    1
    10   111   110    1
    11    98   101    1
    12   106   105    1
    13   101   102    1
    14   102   104    1
    15   102   103    1
    16   122   123    1
    17   114   115    1
    18   116   117    2
    19   116   115    1
    20   123   124    1
    21   123   126    1
    22   115   118    1
    23   130   131    2
    24   130   129    1
    25   128   124   am
    26   128   129    1
    27   124   125    2
    28    87    86   ar
    29   136   137    1
    30   118   119    1
    31   127   126    1
    32   132   129    1
    33   132   133    1
    34    84    83    2
    35    12    14   ar
    36    12    10   ar
    37   134   133    1
    38   134   135    1
    39    72    71   ar
    40    72    70   ar
    41    86    88   ar
    42    86    85    1
    43    83    82    1
    44    14    13   ar
    45    71    69   ar
    46     9    10   ar
    47     9     7   ar
    48   137   138    1
    49   137   140    1
    50    70    68   ar
    51   138   139    2
    52   120   119    1
    53    10     8   ar
    54   119   121    1
    55    82    85    1
    56    82    81    1
    57    69    67   ar
    58    68    67   ar
    59    67    66    1
    60   146   147    1
    61   140   141    1
    62    13    11   ar
    63     7     6   ar
    64     8    11   ar
    65     8     6   ar
    66    66    63    1
    67   148   147    1
    68   148   149    2
    69    81    75   am
    70   147   150    1
    71     6     5    1
    72   141   142   ar
    73   141   143   ar
    74    76    75    2
    75    75    74    1
    76   142   144   ar
    77   150   151    1
    78    55    53    1
    79    63    64    1
    80    63    62    1
    81    54    52    1
    82    64    73   am
    83    64    65    2
    84     1     2    1
    85    73    74    1
    86   143   145   ar
    87     5     2    1
    88   153   152    1
    89   151   152    1
    90    74    77    1
    91    62    58   am
    92    28    26    1
    93   144   145   ar
    94    52    53    1
    95    52    49    1
    96     2     3    1
    97    59    58    2
    98    58    57    1
    99    77    78    1
   100    57    56    1
   101    57    60    1
   102    78    80   am
   103    78    79    2
   104    51    50    2
   105    56    50   am
   106    50    49    1
   107    26    25    1
   108    49    48    1
   109     3    15   am
   110     3     4    2
   111    15    16    1
   112    25    27    1
   113    25    22    1
   114    60    61    1
   115    48    42   am
   116    20    19    1
   117    19    16    1
   118    16    17    1
   119    42    43    2
   120    42    41    1
   121    22    21    1
   122    22    23    1
   123    17    18    2
   124    41    40    1
   125    41    44    1
   126    24    23    2
   127    23    29   am
   128    46    45    2
   129    40    31   am
   130    44    45    1
   131    32    31    2
   132    29    30    1
   133    31    30    1
   134    45    47   am
   135    30    33    1
   136    96    94    1
   137    33    34    1
   138    94    93    1
   139    89    90    1
   140    93    90    1
   141    93    95    1
   142    34    35    1
   143    90    91    1
   144    35    36    1
   145    36    37    2
   146    91    92    2
   147    37    38    1
   148    37    39    1
