@<TRIPOS>MOLECULE
tmp/2zq0B00.pdb
 229 225 0 0 0
SMALL
GASTEIGER

@<TRIPOS>ATOM
      1  N         55.5120   63.0340   72.8770 N.3   161  GLU161     -0.1245
      2  CA        56.8250   62.9230   73.5160 C.3   161  GLU161      0.1567
      3  C         57.3500   64.2200   74.1280 C.2   161  GLU161      0.2260
      4  O         58.5280   64.5630   73.9960 O.2   161  GLU161     -0.2867
      5  CB        57.8290   62.3330   72.5110 C.3   161  GLU161      0.0388
      6  CG        57.3560   60.9770   71.9730 C.3   161  GLU161      0.1160
      7  CD        58.3500   60.2750   71.0610 C.2   161  GLU161      0.3649
      8  OE1       59.0530   60.9560   70.2880 O.co2 161  GLU161     -0.2457
      9  OE2       58.4080   59.0260   71.1030 O.co2 161  GLU161     -0.2457
     10  N         61.3090   70.4800   70.0120 N.3   182  PRO182     -0.2102
     11  CA        61.5390   69.8040   68.7280 C.3   182  PRO182      0.1504
     12  C         61.2690   68.3010   68.7130 C.2   182  PRO182      0.2576
     13  O         61.6840   67.5740   69.6170 O.2   182  PRO182     -0.2718
     14  CB        63.0100   70.1100   68.4360 C.3   182  PRO182      0.0282
     15  CG        63.2350   71.4140   69.1340 C.3   182  PRO182      0.0208
     16  CD        62.5210   71.2000   70.4400 C.3   182  PRO182      0.0893
     17  N         60.5730   67.8420   67.6740 N.am  183  ASN183     -0.1961
     18  CA        60.2710   66.4240   67.5150 C.3   183  ASN183      0.1819
     19  C         60.2020   66.0700   66.0350 C.2   183  ASN183      0.2622
     20  O         59.8510   66.9080   65.2040 O.2   183  ASN183     -0.2715
     21  CB        58.9460   66.0650   68.2010 C.3   183  ASN183      0.1195
     22  CG        58.6700   64.5680   68.1870 C.2   183  ASN183      0.2630
     23  OD1       58.1840   64.0160   67.1940 O.2   183  ASN183     -0.2716
     24  ND2       58.9970   63.9000   69.2860 N.am  183  ASN183     -0.0877
     25  N         60.5390   64.8220   65.7200 N.am  184  SER184     -0.1950
     26  CA        60.5370   64.3180   64.3470 C.3   184  SER184      0.1924
     27  C         59.2180   64.5290   63.5960 C.2   184  SER184      0.2314
     28  O         59.2160   64.7550   62.3890 O.2   184  SER184     -0.2863
     29  CB        60.8970   62.8280   64.3460 C.3   184  SER184      0.2116
     30  OG        60.0550   62.0970   65.2280 O.3   184  SER184     -0.2180
     31  N         69.6360   47.8500   72.2200 N.3   298  TRP298     -0.1241
     32  CA        68.8350   49.0390   72.0020 C.3   298  TRP298      0.1605
     33  C         69.4860   50.3450   72.4570 C.2   298  TRP298      0.2264
     34  O         69.6470   51.2760   71.6620 O.2   298  TRP298     -0.2867
     35  CB        67.5090   48.8310   72.7380 C.3   298  TRP298      0.0550
     36  CG        66.5840   49.9810   72.6480 C.ar  298  TRP298      0.0003
     37  CD1       65.9300   50.4160   71.5360 C.ar  298  TRP298      0.0946
     38  CD2       66.2450   50.8910   73.7000 C.ar  298  TRP298      0.0152
     39  NE1       65.2080   51.5440   71.8260 N.ar  298  TRP298     -0.2442
     40  CE2       65.3830   51.8600   73.1470 C.ar  298  TRP298      0.0810
     41  CE3       66.5900   50.9840   75.0560 C.ar  298  TRP298      0.0012
     42  CZ2       64.8580   52.9170   73.9020 C.ar  298  TRP298      0.0191
     43  CZ3       66.0690   52.0370   75.8080 C.ar  298  TRP298      0.0001
     44  CH2       65.2120   52.9890   75.2250 C.ar  298  TRP298      0.0015
     45  N         70.3770   54.2440   70.7720 N.3   302  ILE302     -0.1245
     46  CA        69.6970   55.4090   71.3280 C.3   302  ILE302      0.1561
     47  C         70.7070   56.4520   71.8050 C.2   302  ILE302      0.2260
     48  O         70.4980   57.6560   71.6410 O.2   302  ILE302     -0.2867
     49  CB        68.7850   55.0030   72.5160 C.3   302  ILE302      0.0252
     50  CG1       67.6120   54.1620   72.0110 C.3   302  ILE302      0.0019
     51  CG2       68.2730   56.2410   73.2420 C.3   302  ILE302      0.0019
     52  CD1       66.6880   54.8960   71.0490 C.3   302  ILE302      0.0001
     53  N         71.9340   51.4750   63.9800 N.3   308  TRP308     -0.1241
     54  CA        70.9250   50.5340   63.4990 C.3   308  TRP308      0.1605
     55  C         71.3840   50.0630   62.1180 C.2   308  TRP308      0.2264
     56  O         71.1440   48.9220   61.7180 O.2   308  TRP308     -0.2867
     57  CB        69.5710   51.2300   63.3390 C.3   308  TRP308      0.0550
     58  CG        68.8090   51.4780   64.6000 C.ar  308  TRP308      0.0003
     59  CD1       68.0020   50.5950   65.2590 C.ar  308  TRP308      0.0946
     60  CD2       68.7350   52.7100   65.3280 C.ar  308  TRP308      0.0152
     61  NE1       67.4250   51.2030   66.3490 N.ar  308  TRP308     -0.2442
     62  CE2       67.8590   52.5010   66.4150 C.ar  308  TRP308      0.0810
     63  CE3       69.3240   53.9720   65.1660 C.ar  308  TRP308      0.0012
     64  CZ2       67.5550   53.5090   67.3390 C.ar  308  TRP308      0.0191
     65  CZ3       69.0220   54.9760   66.0830 C.ar  308  TRP308      0.0001
     66  CH2       68.1430   54.7350   67.1570 C.ar  308  TRP308      0.0015
     67  N         67.1700   45.6300   67.6500 N.3   358  GLU358     -0.1245
     68  CA        66.7950   46.6020   66.6280 C.3   358  GLU358      0.1567
     69  C         67.9540   46.7690   65.6560 C.2   358  GLU358      0.2260
     70  O         69.1210   46.6870   66.0510 O.2   358  GLU358     -0.2867
     71  CB        66.4530   47.9550   67.2540 C.3   358  GLU358      0.0388
     72  CG        65.4280   47.8750   68.3700 C.3   358  GLU358      0.1160
     73  CD        64.7740   49.2110   68.6540 C.2   358  GLU358      0.3649
     74  OE1       65.3470   50.2500   68.2630 O.co2 358  GLU358     -0.2457
     75  OE2       63.6920   49.2210   69.2770 O.co2 358  GLU358     -0.2457
     76  N         67.7810   50.2240   57.3690 N.3   364  TRP364     -0.1241
     77  CA        68.0270   51.2450   58.3790 C.3   364  TRP364      0.1605
     78  C         68.8310   52.4690   57.9590 C.2   364  TRP364      0.2264
     79  O         68.7250   53.5280   58.5830 O.2   364  TRP364     -0.2867
     80  CB        68.6310   50.6020   59.6290 C.3   364  TRP364      0.0550
     81  CG        67.5750   49.9140   60.4330 C.ar  364  TRP364      0.0003
     82  CD1       67.1790   48.6080   60.3340 C.ar  364  TRP364      0.0946
     83  CD2       66.7080   50.5240   61.3950 C.ar  364  TRP364      0.0152
     84  NE1       66.1160   48.3710   61.1740 N.ar  364  TRP364     -0.2442
     85  CE2       65.8080   49.5310   61.8370 C.ar  364  TRP364      0.0810
     86  CE3       66.6040   51.8180   61.9260 C.ar  364  TRP364      0.0012
     87  CZ2       64.8150   49.7890   62.7880 C.ar  364  TRP364      0.0191
     88  CZ3       65.6150   52.0770   62.8730 C.ar  364  TRP364      0.0001
     89  CH2       64.7350   51.0640   63.2930 C.ar  364  TRP364      0.0015
     90  N         66.1550   55.0490   57.3540 N.3   367  TRP367     -0.1227
     91  CA        64.9930   55.0690   58.2390 C.3   367  TRP367      0.1737
     92  C         64.4870   56.4060   58.7610 C.2   367  TRP367      0.2595
     93  O         63.3020   56.5350   59.0790 O.2   367  TRP367     -0.2718
     94  CB        65.2420   54.1740   59.4590 C.3   367  TRP367      0.0564
     95  CG        65.8800   54.8810   60.6390 C.ar  367  TRP367      0.0003
     96  CD1       67.2010   55.2090   60.7930 C.ar  367  TRP367      0.0946
     97  CD2       65.2180   55.3250   61.8300 C.ar  367  TRP367      0.0152
     98  NE1       67.4000   55.8240   62.0080 N.ar  367  TRP367     -0.2442
     99  CE2       66.2000   55.9090   62.6650 C.ar  367  TRP367      0.0810
    100  CE3       63.8880   55.2870   62.2750 C.ar  367  TRP367      0.0012
    101  CZ2       65.8940   56.4490   63.9210 C.ar  367  TRP367      0.0191
    102  CZ3       63.5830   55.8250   63.5240 C.ar  367  TRP367      0.0001
    103  CH2       64.5840   56.3980   64.3320 C.ar  367  TRP367      0.0015
    104  N         65.3580   57.4060   58.8320 N.am  368  PHE368     -0.1976
    105  CA        64.9590   58.6670   59.4420 C.3   368  PHE368      0.1639
    106  C         64.6570   59.9160   58.6210 C.2   368  PHE368      0.2290
    107  O         65.5300   60.4650   57.9510 O.2   368  PHE368     -0.2864
    108  CB        66.0010   59.0350   60.5010 C.3   368  PHE368      0.0560
    109  CG        65.5210   60.0450   61.4970 C.ar  368  PHE368     -0.0200
    110  CD1       64.6250   59.6810   62.4980 C.ar  368  PHE368     -0.0042
    111  CD2       65.9600   61.3620   61.4360 C.ar  368  PHE368     -0.0042
    112  CE1       64.1720   60.6160   63.4290 C.ar  368  PHE368     -0.0003
    113  CE2       65.5140   62.3060   62.3600 C.ar  368  PHE368     -0.0003
    114  CZ        64.6180   61.9310   63.3590 C.ar  368  PHE368     -0.0000
    115  N         61.2690   43.4480   66.0320 N.3   404  HIS404     -0.1241
    116  CA        61.2110   44.9020   65.9500 C.3   404  HIS404      0.1621
    117  C         60.7120   45.2940   64.5660 C.2   404  HIS404      0.2264
    118  O         61.2860   44.8900   63.5450 O.2   404  HIS404     -0.2867
    119  CB        62.5850   45.5250   66.2100 C.3   404  HIS404      0.0745
    120  CG        62.5860   47.0240   66.1660 C.ar  404  HIS404      0.0817
    121  ND1       61.6310   47.7910   66.8010 N.ar  404  HIS404     -0.2268
    122  CD2       63.4430   47.8970   65.5870 C.ar  404  HIS404      0.1154
    123  CE1       61.9040   49.0710   66.6170 C.ar  404  HIS404      0.1986
    124  NE2       62.9980   49.1630   65.8850 N.ar  404  HIS404     -0.2212
    125  N         60.0430   48.7570   63.1340 N.3   406  GLU406     -0.1245
    126  CA        59.9740   50.2070   62.9820 C.3   406  GLU406      0.1567
    127  C         59.4520   50.3800   61.5590 C.2   406  GLU406      0.2260
    128  O         59.9890   49.7770   60.6290 O.2   406  GLU406     -0.2867
    129  CB        61.3570   50.8500   63.0920 C.3   406  GLU406      0.0388
    130  CG        61.3920   52.3070   62.6270 C.3   406  GLU406      0.1160
    131  CD        60.5070   53.2110   63.4670 C.2   406  GLU406      0.3649
    132  OE1       60.7940   53.3660   64.6710 O.co2 406  GLU406     -0.2457
    133  OE2       59.5260   53.7650   62.9260 O.co2 406  GLU406     -0.2457
    134  N         57.7390   44.7860   68.7650 N.3   434  LYS434     -0.1245
    135  CA        57.7750   46.1880   69.1430 C.3   434  LYS434      0.1561
    136  C         57.6930   46.9170   67.8110 C.2   434  LYS434      0.2260
    137  O         58.5860   46.7860   66.9780 O.2   434  LYS434     -0.2867
    138  CB        59.1000   46.5340   69.8310 C.3   434  LYS434      0.0271
    139  CG        59.3120   48.0290   70.0420 C.3   434  LYS434      0.0035
    140  CD        60.6760   48.3180   70.6560 C.3   434  LYS434      0.0206
    141  CE        60.8970   49.8120   70.8430 C.3   434  LYS434      0.1093
    142  NZ        62.2560   50.0770   71.4080 N.3   434  LYS434     -0.1314
    143  N         56.9200   50.6380   65.5360 N.3   436  GLY436     -0.1225
    144  CA        57.2160   52.0530   65.6750 C.3   436  GLY436      0.1811
    145  C         56.7090   52.8210   64.4730 C.2   436  GLY436      0.2280
    146  O         56.5460   52.2480   63.3980 O.2   436  GLY436     -0.2866
    147  N         57.9620   56.2990   63.4500 N.3   438  VAL438     -0.1245
    148  CA        58.7620   57.5200   63.4760 C.3   438  VAL438      0.1561
    149  C         58.7950   58.2450   62.1360 C.2   438  VAL438      0.2260
    150  O         59.2280   57.6940   61.1240 O.2   438  VAL438     -0.2867
    151  CB        60.2080   57.2140   63.9260 C.3   438  VAL438      0.0252
    152  CG1       61.0600   58.4870   63.8640 C.3   438  VAL438      0.0019
    153  CG2       60.1910   56.6580   65.3470 C.3   438  VAL438      0.0019
    154  N         55.1380   51.7580   69.5470 N.3   474  HIS474     -0.1226
    155  CA        55.6180   53.0920   69.8580 C.3   474  HIS474      0.1752
    156  C         55.0560   54.0740   68.8280 C.2   474  HIS474      0.2595
    157  O         54.7330   53.6840   67.7000 O.2   474  HIS474     -0.2718
    158  CB        57.1490   53.1180   69.8710 C.3   474  HIS474      0.0759
    159  CG        57.7450   52.4830   71.0890 C.ar  474  HIS474      0.0818
    160  ND1       58.8950   52.9540   71.6860 N.ar  474  HIS474     -0.2268
    161  CD2       57.3390   51.4280   71.8350 C.ar  474  HIS474      0.1154
    162  CE1       59.1700   52.2180   72.7490 C.ar  474  HIS474      0.1986
    163  NE2       58.2410   51.2850   72.8610 N.ar  474  HIS474     -0.2212
    164  N         54.9230   55.3320   69.2480 N.am  475  GLU475     -0.1979
    165  CA        54.3900   56.4380   68.4450 C.3   475  GLU475      0.1602
    166  C         52.9250   56.2980   68.0380 C.2   475  GLU475      0.2287
    167  O         52.4010   57.1280   67.2970 O.2   475  GLU475     -0.2864
    168  CB        55.2460   56.6900   67.1970 C.3   475  GLU475      0.0415
    169  CG        56.6530   57.1850   67.5000 C.3   475  GLU475      0.1163
    170  CD        57.5880   56.0530   67.8700 C.2   475  GLU475      0.3649
    171  OE1       57.5760   55.0310   67.1500 O.co2 475  GLU475     -0.2457
    172  OE2       58.3400   56.1870   68.8620 O.co2 475  GLU475     -0.2457
    173  N         54.2410   53.3000   73.7740 N.3   493  GLU493     -0.1245
    174  CA        55.1290   54.2620   74.4010 C.3   493  GLU493      0.1567
    175  C         54.1050   55.3930   74.4770 C.2   493  GLU493      0.2260
    176  O         53.4590   55.5870   75.5080 O.2   493  GLU493     -0.2867
    177  CB        56.2900   54.6300   73.4890 C.3   493  GLU493      0.0388
    178  CG        57.2680   55.5840   74.1430 C.3   493  GLU493      0.1160
    179  CD        58.5130   55.7790   73.3180 C.2   493  GLU493      0.3649
    180  OE1       58.3930   56.2560   72.1730 O.co2 493  GLU493     -0.2457
    181  OE2       59.6110   55.4470   73.8150 O.co2 493  GLU493     -0.2457
    182  N         63.9470   57.0320   76.6700 N.3   499  GLU499     -0.1231
    183  CA        64.8240   57.3790   75.5600 C.3   499  GLU499      0.1699
    184  C         65.1960   58.8600   75.5750 C.2   499  GLU499      0.2592
    185  O         66.3130   59.2270   75.2060 O.2   499  GLU499     -0.2718
    186  CB        64.1800   57.0180   74.2180 C.3   499  GLU499      0.0402
    187  CG        62.8580   57.7190   73.9340 C.3   499  GLU499      0.1161
    188  CD        62.2090   57.2050   72.6640 C.2   499  GLU499      0.3649
    189  OE1       62.6440   56.1440   72.1760 O.co2 499  GLU499     -0.2457
    190  OE2       61.2610   57.8430   72.1600 O.co2 499  GLU499     -0.2457
    191  N         64.2770   59.7150   76.0140 N.am  500  TYR500     -0.1976
    192  CA        64.5770   61.1380   76.0390 C.3   500  TYR500      0.1639
    193  C         65.5580   61.5390   77.1320 C.2   500  TYR500      0.2290
    194  O         66.0540   62.6640   77.1370 O.2   500  TYR500     -0.2864
    195  CB        63.2900   61.9620   76.1270 C.3   500  TYR500      0.0560
    196  CG        62.6450   62.1370   74.7700 C.ar  500  TYR500     -0.0198
    197  CD1       61.8640   61.1270   74.2100 C.ar  500  TYR500     -0.0009
    198  CD2       62.8750   63.2870   74.0150 C.ar  500  TYR500     -0.0009
    199  CE1       61.3280   61.2560   72.9320 C.ar  500  TYR500      0.0417
    200  CE2       62.3470   63.4260   72.7330 C.ar  500  TYR500      0.0417
    201  CZ        61.5740   62.4050   72.2000 C.ar  500  TYR500      0.1957
    202  OH        61.0510   62.5350   70.9330 O.3   500  TYR500     -0.2866
    203  N         68.2240   60.4230   77.1960 N.3   502  SER502     -0.1202
    204  CA        69.4400   60.3930   76.3880 C.3   502  SER502      0.2020
    205  C         69.4010   61.5370   75.3750 C.2   502  SER502      0.2619
    206  O         70.4060   61.8520   74.7370 O.2   502  SER502     -0.2717
    207  CB        69.5460   59.0560   75.6460 C.3   502  SER502      0.2103
    208  OG        70.6050   59.0730   74.7030 O.3   502  SER502     -0.2182
    209  N         68.2310   62.1560   75.2390 N.am  503  PHE503     -0.1961
    210  CA        68.0320   63.2600   74.3050 C.3   503  PHE503      0.1771
    211  C         67.9620   64.6030   75.0270 C.2   503  PHE503      0.2620
    212  O         67.3080   65.5350   74.5540 O.2   503  PHE503     -0.2715
    213  CB        66.7320   63.0530   73.5160 C.3   503  PHE503      0.0574
    214  CG        66.6730   61.7560   72.7480 C.ar  503  PHE503     -0.0200
    215  CD1       65.4440   61.2170   72.3790 C.ar  503  PHE503     -0.0042
    216  CD2       67.8360   61.0820   72.3810 C.ar  503  PHE503     -0.0042
    217  CE1       65.3690   60.0290   71.6570 C.ar  503  PHE503     -0.0003
    218  CE2       67.7720   59.8900   71.6570 C.ar  503  PHE503     -0.0003
    219  CZ        66.5360   59.3630   71.2950 C.ar  503  PHE503     -0.0000
    220  N         68.6350   64.7030   76.1700 N.am  504  GLY504     -0.1954
    221  CA        68.6210   65.9460   76.9210 C.3   504  GLY504      0.1869
    222  C         68.0650   65.7610   78.3170 C.2   504  GLY504      0.2309
    223  O         68.3240   66.5720   79.2110 O.2   504  GLY504     -0.2863
    224  N         74.0540   64.0590   77.6130 N.3   544  SER544     -0.1217
    225  CA        72.7720   63.9850   78.3090 C.3   544  SER544      0.1889
    226  C         72.9140   63.1880   79.6080 C.2   544  SER544      0.2288
    227  O         73.7210   62.2590   79.6920 O.2   544  SER544     -0.2866
    228  CB        71.7180   63.3330   77.4050 C.3   544  SER544      0.2089
    229  OG        70.4230   63.4180   77.9790 O.3   544  SER544     -0.2183
@<TRIPOS>BOND
     1    90    91    1
     2    76    77    1
     3   107   106    2
     4    78    77    1
     5    78    79    2
     6    91    92    1
     7    91    94    1
     8    77    80    1
     9   106   105    1
    10    92   104   am
    11    92    93    2
    12   104   105    1
    13   105   108    1
    14    94    95    1
    15    80    81    1
    16    82    81   ar
    17    82    84   ar
    18    81    83   ar
    19   108   109    1
    20   128   127    2
    21    95    96   ar
    22    95    97   ar
    23    96    98   ar
    24   150   149    2
    25    84    85   ar
    26    83    85   ar
    27    83    86   ar
    28   111   109   ar
    29   111   113   ar
    30   109   110   ar
    31   127   126    1
    32    56    55    2
    33    97   100   ar
    34    97    99   ar
    35    85    87   ar
    36    86    88   ar
    37    98    99   ar
    38    55    54    1
    39   149   148    1
    40   100   102   ar
    41   113   114   ar
    42    28    27    2
    43   110   112   ar
    44   130   129    1
    45   130   131    1
    46    99   101   ar
    47    87    89   ar
    48    88    89   ar
    49   133   131   ar
    50   126   129    1
    51   126   125    1
    52    57    54    1
    53    57    58    1
    54   114   112   ar
    55   146   145    2
    56   147   148    1
    57   131   132   ar
    58   148   151    1
    59    54    53    1
    60   102   103   ar
    61   118   117    2
    62    27    26    1
    63   152   151    1
    64   101   103   ar
    65   151   153    1
    66    29    26    1
    67    29    30    1
    68    26    25    1
    69   145   144    1
    70   117   116    1
    71    58    59   ar
    72    58    60   ar
    73    63    60   ar
    74    63    65   ar
    75    20    19    2
    76    59    61   ar
    77    60    62   ar
    78   143   144    1
    79   122   124   ar
    80   122   120   ar
    81    69    70    2
    82    69    68    1
    83    25    19   am
    84   124   123   ar
    85   116   115    1
    86   116   119    1
    87    19    18    1
    88    65    66   ar
    89   120   119    1
    90   120   121   ar
    91    61    62   ar
    92    62    64   ar
    93   123   121   ar
    94    68    71    1
    95    68    67    1
    96   137   136    2
    97   171   170   ar
    98    66    64   ar
    99    23    22    2
   100   168   169    1
   101   168   165    1
   102    71    72    1
   103   167   166    2
   104   169   170    1
   105    18    17    1
   106    18    21    1
   107    17    12   am
   108   157   156    2
   109   136   135    1
   110   170   172   ar
   111   166   165    1
   112    22    21    1
   113    22    24   am
   114    74    73   ar
   115    72    73    1
   116    14    11    1
   117    14    15    1
   118   165   164    1
   119    73    75   ar
   120    12    11    1
   121    12    13    2
   122    11    10    1
   123   134   135    1
   124   156   164   am
   125   156   155    1
   126    15    16    1
   127   135   138    1
   128   154   155    1
   129   138   139    1
   130   155   158    1
   131   158   159    1
   132    10    16    1
   133   139   140    1
   134     8     7   ar
   135   140   141    1
   136    45    46    1
   137   141   142    1
   138   202   201    1
   139    52    50    1
   140     7     9   ar
   141     7     6    1
   142   159   160   ar
   143   159   161   ar
   144   219   218   ar
   145   219   217   ar
   146    46    47    1
   147    46    49    1
   148    37    39   ar
   149    37    36   ar
   150    48    47    2
   151   218   216   ar
   152   217   215   ar
   153    34    33    2
   154   160   162   ar
   155    39    40   ar
   156   161   163   ar
   157     6     5    1
   158    32    31    1
   159    32    33    1
   160    32    35    1
   161    50    49    1
   162   190   188   ar
   163   180   179   ar
   164   189   188   ar
   165   201   200   ar
   166   201   199   ar
   167   215   214   ar
   168   216   214   ar
   169     5     2    1
   170    49    51    1
   171    36    35    1
   172    36    38   ar
   173   188   187    1
   174   200   198   ar
   175   214   213    1
   176   162   163   ar
   177     1     2    1
   178   199   197   ar
   179    40    38   ar
   180    40    42   ar
   181   179   181   ar
   182   179   178    1
   183   177   178    1
   184   177   174    1
   185   213   210    1
   186     2     3    1
   187    38    41   ar
   188   173   174    1
   189    42    44   ar
   190   187   186    1
   191     4     3    2
   192   198   196   ar
   193   197   196   ar
   194   186   183    1
   195   210   211    1
   196   210   209    1
   197   174   175    1
   198   175   176    2
   199   212   211    2
   200   208   207    1
   201   206   205    2
   202   196   195    1
   203   211   220   am
   204    41    43   ar
   205   185   184    2
   206    44    43   ar
   207   209   205   am
   208   205   204    1
   209   183   184    1
   210   183   182    1
   211   184   191   am
   212   207   204    1
   213   191   192    1
   214   192   195    1
   215   192   193    1
   216   220   221    1
   217   204   203    1
   218   221   222    1
   219   193   194    2
   220   228   229    1
   221   228   225    1
   222   224   225    1
   223   225   226    1
   224   222   223    2
   225   226   227    2
