@<TRIPOS>MOLECULE
tmp/2zq1A00.pdb
 162 159 0 0 0
SMALL
GASTEIGER

@<TRIPOS>ATOM
      1  N        -29.6930   -4.3490    8.8470 N.3    40  HIS40      -0.1241
      2  CA       -30.1470   -2.9750    9.0630 C.3    40  HIS40       0.1621
      3  C        -29.7260   -2.0290    7.9430 C.2    40  HIS40       0.2264
      4  O        -30.2110   -0.8990    7.9300 O.2    40  HIS40      -0.2867
      5  CB       -29.6650   -2.4770   10.4170 C.3    40  HIS40       0.0745
      6  CG       -28.3040   -1.9060   10.5700 C.ar   40  HIS40       0.0817
      7  ND1      -27.2860   -2.6110   11.1990 N.ar   40  HIS40      -0.2268
      8  CD2      -27.7660   -0.7100   10.2370 C.ar   40  HIS40       0.1154
      9  CE1      -26.1850   -1.8800   11.2180 C.ar   40  HIS40       0.1986
     10  NE2      -26.4470   -0.7280   10.6420 N.ar   40  HIS40      -0.2212
     11  N        -35.3290   -6.2980   13.8760 N.3    78  SER78      -0.1202
     12  CA       -34.8390   -4.9300   13.8460 C.3    78  SER78       0.2020
     13  C        -34.7610   -4.3240   15.2390 C.2    78  SER78       0.2619
     14  O        -33.9910   -3.4060   15.5120 O.2    78  SER78      -0.2717
     15  CB       -35.7250   -4.0420   12.9560 C.3    78  SER78       0.2103
     16  OG       -37.1010   -4.1200   13.2660 O.3    78  SER78      -0.2182
     17  N        -35.6140   -4.8250   16.1390 N.am   79  ASN79      -0.1960
     18  CA       -35.6860   -4.1820   17.4510 C.3    79  ASN79       0.1819
     19  C        -34.4820   -4.5790   18.3060 C.2    79  ASN79       0.2622
     20  O        -34.0030   -3.7580   19.0950 O.2    79  ASN79      -0.2715
     21  CB       -36.9690   -4.5020   18.2100 C.3    79  ASN79       0.1195
     22  CG       -38.1920   -3.7830   17.6670 C.2    79  ASN79       0.2630
     23  OD1      -38.1440   -2.6690   17.1560 O.2    79  ASN79      -0.2716
     24  ND2      -39.3250   -4.4640   17.7730 N.am   79  ASN79      -0.0877
     25  N        -34.0120   -5.8030   18.1490 N.am   80  THR80      -0.1937
     26  CA       -32.9080   -6.3300   18.9530 C.3    80  THR80       0.2028
     27  C        -31.6060   -6.5050   18.1520 C.2    80  THR80       0.2642
     28  O        -30.5630   -6.7160   18.7730 O.2    80  THR80      -0.2714
     29  CB       -33.2670   -7.6720   19.5890 C.3    80  THR80       0.1808
     30  OG1      -33.6390   -8.6150   18.5780 O.3    80  THR80      -0.2208
     31  CG2      -34.5060   -7.5840   20.4760 C.3    80  THR80       0.0379
     32  N        -31.6550   -6.4450   16.8420 N.am   81  LEU81      -0.1977
     33  CA       -30.5960   -6.6340   15.8530 C.3    81  LEU81       0.1596
     34  C        -29.9610   -8.0050   15.8960 C.2    81  LEU81       0.2287
     35  O        -28.8320   -8.2520   15.4580 O.2    81  LEU81      -0.2864
     36  CB       -29.4950   -5.5650   15.9860 C.3    81  LEU81       0.0297
     37  CG       -29.8570   -4.1280   15.6200 C.3    81  LEU81       0.0022
     38  CD1      -28.6120   -3.2420   15.7020 C.3    81  LEU81       0.0001
     39  CD2      -30.5160   -4.0130   14.2460 C.3    81  LEU81       0.0001
     40  N        -28.8540   -7.8250   26.2020 N.3   155  GLN155     -0.1196
     41  CA       -28.9350   -7.3980   24.7970 C.3   155  GLN155      0.1782
     42  C        -27.9980   -8.1700   23.8820 C.2   155  GLN155      0.2306
     43  O        -28.0290   -8.0180   22.6620 O.2   155  GLN155     -0.2863
     44  CB       -28.6180   -5.9000   24.6720 C.2   155  GLN155      0.0051
     45  CG       -29.6450   -4.9670   25.2880 C.2   155  GLN155      0.0584
     46  CD       -29.4680   -3.4900   25.0260 C.2   155  GLN155      0.2840
     47  OE1      -28.4020   -2.8780   25.1090 O.2   155  GLN155     -0.2667
     48  NE2      -30.5830   -2.8490   24.6890 N.am  155  GLN155     -0.0837
     49  N        -12.8630    2.4190   17.9500 N.3   171  ASP171     -0.1225
     50  CA       -14.1350    1.7140   17.7290 C.3   171  ASP171      0.1805
     51  C        -14.6030    1.8910   16.3000 C.2   171  ASP171      0.2598
     52  O        -14.0800    2.7760   15.6020 O.2   171  ASP171     -0.2718
     53  CB       -15.1710    2.2270   18.7280 C.3   171  ASP171      0.1424
     54  CG       -16.3880    1.3500   18.9570 C.2   171  ASP171      0.3668
     55  OD1      -17.2880    1.7150   19.7450 O.co2 171  ASP171     -0.2456
     56  OD2      -16.5030    0.2590   18.3670 O.co2 171  ASP171     -0.2456
     57  N        -15.5740    1.0970   15.8380 N.am  172  SER172     -0.1938
     58  CA       -16.2770    1.4280   14.6060 C.3   172  SER172      0.2055
     59  C        -17.3800    2.4280   14.9930 C.2   172  SER172      0.2643
     60  O        -17.5320    2.7360   16.1840 O.2   172  SER172     -0.2714
     61  CB       -16.8460    0.2360   13.8640 C.3   172  SER172      0.2130
     62  OG       -17.7060   -0.5440   14.6880 O.3   172  SER172     -0.2179
     63  N        -18.1260    2.9540   14.0290 N.am  173  CYS173     -0.1953
     64  CA       -19.0870    4.0220   14.2970 C.3   173  CYS173      0.1843
     65  C        -20.1250    4.1030   13.1920 C.2   173  CYS173      0.2625
     66  O        -20.0660    3.3430   12.2270 O.2   173  CYS173     -0.2714
     67  CB       -18.3770    5.3650   14.4180 C.3   173  CYS173      0.0997
     68  SG       -19.3330    6.6370   15.2670 S.3   173  CYS173     -0.0797
     69  N        -21.0920    5.0020   13.3150 N.am  174  GLN174     -0.1977
     70  CA       -22.1040    5.1520   12.2760 C.3   174  GLN174      0.1601
     71  C        -21.4860    5.3420   10.8920 C.2   174  GLN174      0.2287
     72  O        -20.5070    6.0710   10.7470 O.2   174  GLN174     -0.2864
     73  CB       -23.0110    6.3320   12.6420 C.3   174  GLN174      0.0394
     74  CG       -23.6210    6.1670   14.0420 C.3   174  GLN174      0.0908
     75  CD       -24.6230    5.0200   14.1180 C.2   174  GLN174      0.2608
     76  OE1      -25.5470    4.9150   13.3170 O.2   174  GLN174     -0.2717
     77  NE2      -24.3770    4.1040   15.0410 N.am  174  GLN174     -0.0878
     78  N        -21.3750    0.6520    9.3770 N.3   177  SER177     -0.1217
     79  CA       -22.3910   -0.3870    9.3930 C.3   177  SER177      0.1889
     80  C        -22.3360   -1.3110    8.1710 C.2   177  SER177      0.2288
     81  O        -22.2890   -0.7670    7.0750 O.2   177  SER177     -0.2866
     82  CB       -23.7870    0.2060    9.3900 C.3   177  SER177      0.2089
     83  OG       -24.2400    0.7250   10.6270 O.3   177  SER177     -0.2183
     84  N        -20.0960   -5.1400   11.0370 N.3   191  VAL191     -0.1231
     85  CA       -20.3530   -3.9820   11.9030 C.3   191  VAL191      0.1692
     86  C        -21.8530   -3.8570   12.1640 C.2   191  VAL191      0.2593
     87  O        -22.6330   -3.6670   11.2270 O.2   191  VAL191     -0.2718
     88  CB       -19.7760   -2.6990   11.3000 C.3   191  VAL191      0.0266
     89  CG1      -20.0180   -1.5220   12.2340 C.3   191  VAL191      0.0020
     90  CG2      -18.2690   -2.7520   11.0120 C.3   191  VAL191      0.0020
     91  N        -22.2970   -3.9800   13.4100 N.am  192  SER192     -0.1938
     92  CA       -23.7350   -4.0110   13.6900 C.3   192  SER192      0.2055
     93  C        -24.1770   -2.8570   14.5620 C.2   192  SER192      0.2643
     94  O        -24.9180   -1.9600   14.1460 O.2   192  SER192     -0.2714
     95  CB       -24.0850   -5.3660   14.3260 C.3   192  SER192      0.2130
     96  OG       -25.4650   -5.5340   14.5760 O.3   192  SER192     -0.2179
     97  N        -23.7100   -2.8370   15.8140 N.am  193  TRP193     -0.1959
     98  CA       -24.2110   -1.8140   16.7260 C.3   193  TRP193      0.1771
     99  C        -23.2520   -1.5430   17.8810 C.2   193  TRP193      0.2620
    100  O        -22.1660   -2.1050   17.9180 O.2   193  TRP193     -0.2715
    101  CB       -25.5930   -2.2040   17.2220 C.3   193  TRP193      0.0590
    102  CG       -25.8020   -3.4200   18.0830 C.ar  193  TRP193      0.0006
    103  CD1      -25.9510   -4.7100   17.6530 C.ar  193  TRP193      0.0946
    104  CD2      -25.8940   -3.4730   19.5240 C.ar  193  TRP193      0.0152
    105  NE1      -26.1310   -5.5560   18.7280 N.ar  193  TRP193     -0.2442
    106  CE2      -26.0970   -4.8190   19.8890 C.ar  193  TRP193      0.0810
    107  CE3      -25.8300   -2.5430   20.5670 C.ar  193  TRP193      0.0012
    108  CZ2      -26.2280   -5.2220   21.2120 C.ar  193  TRP193      0.0191
    109  CZ3      -25.9590   -2.9360   21.8870 C.ar  193  TRP193      0.0001
    110  CH2      -26.1580   -4.2860   22.1990 C.ar  193  TRP193      0.0015
    111  N        -23.6840   -0.6720   18.7980 N.am  194  GLY194     -0.1940
    112  CA       -23.0430   -0.3020   20.0250 C.3   194  GLY194      0.2014
    113  C        -23.7340    0.9080   20.6280 C.2   194  GLY194      0.2640
    114  O        -24.7730    1.3720   20.1530 O.2   194  GLY194     -0.2714
    115  N        -23.1320    1.4210   21.6840 N.am  195  SER195     -0.1935
    116  CA       -23.5770    2.6130   22.3830 C.3   195  SER195      0.2055
    117  C        -22.6110    3.7660   22.1320 C.2   195  SER195      0.2644
    118  O        -21.4770    3.7110   22.5900 O.2   195  SER195     -0.2714
    119  CB       -23.6720    2.3300   23.8730 C.3   195  SER195      0.2130
    120  OG       -24.6600    1.3450   24.1310 O.3   195  SER195     -0.2179
    121  N        -23.0350    4.7880   21.4000 N.am  196  GLY196     -0.1939
    122  CA       -22.0920    5.8340   21.0120 C.3   196  GLY196      0.2014
    123  C        -20.9790    5.2130   20.1740 C.2   196  GLY196      0.2639
    124  O        -21.1910    4.1600   19.5670 O.2   196  GLY196     -0.2714
    125  N        -19.8180    5.8430   20.1290 N.am  197  CYS197     -0.1967
    126  CA       -18.6460    5.2770   19.4750 C.3   197  CYS197      0.1712
    127  C        -17.3960    5.5390   20.3240 C.2   197  CYS197      0.2296
    128  O        -17.1690    6.6650   20.7540 O.2   197  CYS197     -0.2864
    129  CB       -18.4150    5.8360   18.0730 C.3   197  CYS197      0.0983
    130  SG       -19.8740    5.8210   17.0370 S.3   197  CYS197     -0.0798
    131  N        -18.0460    0.4490   26.4900 N.3   202  LYS202     -0.1245
    132  CA       -19.1310    0.2500   25.5190 C.3   202  LYS202      0.1561
    133  C        -18.5310   -0.1700   24.1880 C.2   202  LYS202      0.2260
    134  O        -18.4750    0.6320   23.2270 O.2   202  LYS202     -0.2867
    135  CB       -19.9760    1.5060   25.3670 C.3   202  LYS202      0.0271
    136  CG       -20.7540    1.8930   26.6230 C.3   202  LYS202      0.0035
    137  CD       -22.0080    1.0340   26.7690 C.3   202  LYS202      0.0206
    138  CE       -22.5100    1.0030   28.2150 C.3   202  LYS202      0.1093
    139  NZ       -23.9360    0.5650   28.2620 N.3   202  LYS202     -0.1314
    140  N        -17.7410   -2.1960   20.5030 N.3   204  GLY204     -0.1210
    141  CA       -18.6070   -2.4430   19.3510 C.3   204  GLY204      0.1956
    142  C        -19.1790   -3.8540   19.3950 C.2   204  GLY204      0.2612
    143  O        -18.5600   -4.7890   19.9310 O.2   204  GLY204     -0.2717
    144  N        -20.3650   -3.9920   18.8080 N.am  205  VAL205     -0.1965
    145  CA       -21.0390   -5.2940   18.7620 C.3   205  VAL205      0.1727
    146  C        -21.1340   -5.7010   17.2820 C.2   205  VAL205      0.2616
    147  O        -21.4730   -4.8520   16.4560 O.2   205  VAL205     -0.2715
    148  CB       -22.4210   -5.3030   19.4410 C.3   205  VAL205      0.0290
    149  CG1      -22.9220   -6.7340   19.6000 C.3   205  VAL205      0.0023
    150  CG2      -22.3800   -4.6240   20.8020 C.3   205  VAL205      0.0023
    151  N        -20.8050   -6.9470   17.0100 N.am  206  TYR206     -0.1974
    152  CA       -20.6810   -7.4540   15.6370 C.3   206  TYR206      0.1639
    153  C        -21.4960   -8.7110   15.4320 C.2   206  TYR206      0.2290
    154  O        -21.5710   -9.6430   16.2390 O.2   206  TYR206     -0.2864
    155  CB       -19.1730   -7.6710   15.3430 C.3   206  TYR206      0.0560
    156  CG       -18.4060   -6.3720   15.5080 C.ar  206  TYR206     -0.0198
    157  CD1      -18.3220   -5.4780   14.4590 C.ar  206  TYR206     -0.0009
    158  CD2      -17.7980   -6.0280   16.7180 C.ar  206  TYR206     -0.0009
    159  CE1      -17.6520   -4.2710   14.5260 C.ar  206  TYR206      0.0417
    160  CE2      -17.1280   -4.8220   16.8120 C.ar  206  TYR206      0.0417
    161  CZ       -17.0570   -3.9570   15.7380 C.ar  206  TYR206      0.1957
    162  OH       -16.3900   -2.7620   15.8500 O.3   206  TYR206     -0.2866
@<TRIPOS>BOND
     1    81    80    2
     2     4     3    2
     3     3     2    1
     4    80    79    1
     5     1     2    1
     6     2     5    1
     7    78    79    1
     8    82    79    1
     9    82    83    1
    10     8     6   ar
    11     8    10   ar
    12     5     6    1
    13     6     7   ar
    14    10     9   ar
    15    72    71    2
    16    71    70    1
    17    90    88    1
    18    84    85    1
    19     7     9   ar
    20    87    86    2
    21    88    85    1
    22    88    89    1
    23    85    86    1
    24    86    91   am
    25    66    65    2
    26    70    73    1
    27    70    69    1
    28    73    74    1
    29    15    16    1
    30    15    12    1
    31    65    69   am
    32    65    64    1
    33    76    75    2
    34    91    92    1
    35    92    95    1
    36    92    93    1
    37    12    11    1
    38    12    13    1
    39    61    58    1
    40    61    62    1
    41    63    64    1
    42    63    59   am
    43    74    75    1
    44    75    77   am
    45    94    93    2
    46    39    37    1
    47    64    67    1
    48    95    96    1
    49    67    68    1
    50   157   159   ar
    51   157   156   ar
    52   159   161   ar
    53    93    97   am
    54    58    59    1
    55    58    57    1
    56    59    60    2
    57    13    14    2
    58    13    17   am
    59    68   130    1
    60   155   156    1
    61   155   152    1
    62   153   152    1
    63   153   154    2
    64    35    34    2
    65   156   158   ar
    66    52    51    2
    67    37    38    1
    68    37    36    1
    69   152   151    1
    70   161   162    1
    71   161   160   ar
    72    97    98    1
    73    57    51   am
    74    33    34    1
    75    33    36    1
    76    33    32    1
    77    17    18    1
    78    51    50    1
    79   147   146    2
    80   158   160   ar
    81    98   101    1
    82    98    99    1
    83    32    27   am
    84   151   146   am
    85   130   129    1
    86    23    22    2
    87   101   102    1
    88   146   145    1
    89    18    21    1
    90    18    19    1
    91   103   102   ar
    92   103   105   ar
    93    22    24   am
    94    22    21    1
    95    50    49    1
    96    50    53    1
    97    99   100    2
    98    99   111   am
    99   129   126    1
   100   102   104   ar
   101    25    19   am
   102    25    26    1
   103    27    28    2
   104    27    26    1
   105    19    20    2
   106    56    54   ar
   107    30    29    1
   108   105   106   ar
   109    53    54    1
   110   145   144    1
   111   145   148    1
   112   111   112    1
   113   144   142   am
   114    26    29    1
   115    54    55   ar
   116   141   142    1
   117   141   140    1
   118   142   143    2
   119   148   149    1
   120   148   150    1
   121   126   125    1
   122   126   127    1
   123   104   106   ar
   124   104   107   ar
   125   124   123    2
   126    29    31    1
   127   106   108   ar
   128   112   113    1
   129   125   123   am
   130   114   113    2
   131   123   122    1
   132   127   128    2
   133   107   109   ar
   134   113   115   am
   135   122   121    1
   136   108   110   ar
   137   121   117   am
   138   115   116    1
   139   109   110   ar
   140   117   116    1
   141   117   118    2
   142   116   119    1
   143    43    42    2
   144   134   133    2
   145   119   120    1
   146    42    41    1
   147   133   132    1
   148    44    41    1
   149    44    45    2
   150    48    46   am
   151    41    40    1
   152    46    47    2
   153    46    45    1
   154   135   132    1
   155   135   136    1
   156   132   131    1
   157   136   137    1
   158   137   138    1
   159   138   139    1
