@<TRIPOS>MOLECULE
tmp/2zq2A00.pdb
 181 180 0 0 0
SMALL
GASTEIGER

@<TRIPOS>ATOM
      1  N          8.2840   -7.9020   14.6220 N.3    40  HIS40      -0.1241
      2  CA         9.3950   -7.9120   15.5760 C.3    40  HIS40       0.1621
      3  C          9.4470   -6.6260   16.3780 C.2    40  HIS40       0.2264
      4  O         10.1970   -6.5740   17.3500 O.2    40  HIS40      -0.2867
      5  CB        10.6890   -8.2170   14.8540 C.3    40  HIS40       0.0745
      6  CG        11.3840   -7.1250   14.1330 C.ar   40  HIS40       0.0817
      7  ND1       11.3430   -6.9250   12.7650 N.ar   40  HIS40      -0.2268
      8  CD2       12.1890   -6.1590   14.6150 C.ar   40  HIS40       0.1154
      9  CE1       12.0840   -5.8870   12.4600 C.ar   40  HIS40       0.1986
     10  NE2       12.6170   -5.3760   13.5580 N.ar   40  HIS40      -0.2212
     11  N          9.7080  -15.7640   14.7060 N.3    78  SER78      -0.1202
     12  CA        10.7100  -14.8180   15.1750 C.3    78  SER78       0.2020
     13  C         12.1150  -15.2660   14.8180 C.2    78  SER78       0.2619
     14  O         13.0530  -14.4640   14.8910 O.2    78  SER78      -0.2717
     15  CB        10.5800  -14.6290   16.6980 C.3    78  SER78       0.2103
     16  OG        10.8190  -15.8650   17.3210 O.3    78  SER78      -0.2182
     17  N         12.2570  -16.5060   14.4180 N.am   79  ASN79      -0.1960
     18  CA        13.5970  -16.9310   13.9930 C.3    79  ASN79       0.1819
     19  C         13.8420  -16.6590   12.5220 C.2    79  ASN79       0.2622
     20  O         14.9470  -16.2070   12.1730 O.2    79  ASN79      -0.2715
     21  CB        13.7510  -18.4200   14.3390 C.3    79  ASN79       0.1195
     22  CG        13.8060  -18.5800   15.8600 C.2    79  ASN79       0.2630
     23  OD1       14.5560  -17.9470   16.6060 O.2    79  ASN79      -0.2716
     24  ND2       12.9320  -19.4800   16.2950 N.am   79  ASN79      -0.0877
     25  N         12.8850  -16.9010   11.6470 N.am   80  THR80      -0.1937
     26  CA        13.0970  -16.6660   10.2110 C.3    80  THR80       0.2028
     27  C         12.5920  -15.2980    9.7500 C.2    80  THR80       0.2642
     28  O         12.9310  -14.8570    8.6450 O.2    80  THR80      -0.2714
     29  CB        12.2960  -17.6540    9.3880 C.3    80  THR80       0.1808
     30  OG1       10.9610  -17.6850    9.8660 O.3    80  THR80      -0.2208
     31  CG2       12.7960  -19.0680    9.6620 C.3    80  THR80       0.0379
     32  N         11.7870  -14.6580   10.5810 N.am   81  LEU81      -0.1977
     33  CA        11.1290  -13.3720   10.3520 C.3    81  LEU81       0.1596
     34  C         10.1540  -13.4190    9.2000 C.2    81  LEU81       0.2287
     35  O          9.6500  -12.4740    8.6110 O.2    81  LEU81      -0.2864
     36  CB        12.1310  -12.2070   10.2020 C.3    81  LEU81       0.0297
     37  CG        13.0180  -11.8920   11.4030 C.3    81  LEU81       0.0022
     38  CD1       13.9260  -10.7300   11.0920 C.3    81  LEU81       0.0001
     39  CD2       12.1680  -11.5880   12.6190 C.3    81  LEU81       0.0001
     40  N         21.1490  -13.9640    0.2530 N.3   152  TYR152     -0.1241
     41  CA        20.7830  -14.6070    1.5210 C.3   152  TYR152      0.1605
     42  C         20.1970  -15.9830    1.2410 C.2   152  TYR152      0.2264
     43  O         19.0020  -16.2740    1.3870 O.2   152  TYR152     -0.2867
     44  CB        19.7680  -13.7140    2.1790 C.3   152  TYR152      0.0534
     45  CG        20.1640  -12.3270    2.6050 C.ar  152  TYR152     -0.0201
     46  CD1       21.0220  -12.1970    3.6890 C.ar  152  TYR152     -0.0009
     47  CD2       19.6990  -11.1900    1.9420 C.ar  152  TYR152     -0.0009
     48  CE1       21.4100  -10.9420    4.1020 C.ar  152  TYR152      0.0417
     49  CE2       20.0810   -9.9340    2.3750 C.ar  152  TYR152      0.0417
     50  CZ        20.9420   -9.8230    3.4500 C.ar  152  TYR152      0.1957
     51  OH        21.3120   -8.5620    3.8930 O.3   152  TYR152     -0.2866
     52  N         17.1880  -18.1210    2.9840 N.3   155  GLN155     -0.1245
     53  CA        16.5340  -17.2640    3.9730 C.3   155  GLN155      0.1566
     54  C         15.4100  -16.3890    3.4570 C.2   155  GLN155      0.2260
     55  O         14.7620  -15.7160    4.2920 O.2   155  GLN155     -0.2867
     56  CB        17.5680  -16.3150    4.5930 C.3   155  GLN155      0.0367
     57  CG        18.7620  -16.9990    5.2440 C.3   155  GLN155      0.0905
     58  CD        20.0250  -16.1480    5.2320 C.2   155  GLN155      0.2608
     59  OE1       20.3100  -15.3940    6.1650 O.2   155  GLN155     -0.2717
     60  NE2       20.8150  -16.2740    4.1550 N.am  155  GLN155     -0.0878
     61  N         21.3040    2.0880    2.9100 N.3   171  ASP171     -0.1225
     62  CA        20.4270    1.0320    3.4490 C.3   171  ASP171      0.1805
     63  C         19.5400    1.5810    4.5730 C.2   171  ASP171      0.2598
     64  O         19.7740    2.6880    5.0820 O.2   171  ASP171     -0.2718
     65  CB        21.2820   -0.1220    3.9660 C.3   171  ASP171      0.1424
     66  CG        20.6490   -1.4780    4.1130 C.2   171  ASP171      0.3668
     67  OD1       21.3900   -2.3980    4.5450 O.co2 171  ASP171     -0.2456
     68  OD2       19.4310   -1.6130    3.8000 O.co2 171  ASP171     -0.2456
     69  N         18.5550    0.7790    4.9640 N.am  172  SER172     -0.1938
     70  CA        17.8890    0.9840    6.2510 C.3   172  SER172      0.2055
     71  C         18.7020    0.2850    7.3400 C.2   172  SER172      0.2643
     72  O         19.6810   -0.3880    7.0420 O.2   172  SER172     -0.2714
     73  CB        16.4420    0.5280    6.2290 C.3   172  SER172      0.2130
     74  OG        16.3250   -0.8380    5.9070 O.3   172  SER172     -0.2179
     75  N         18.3090    0.4560    8.6030 N.am  173  CYS173     -0.1953
     76  CA        19.0930   -0.0570    9.7160 C.3   173  CYS173      0.1843
     77  C         18.2190   -0.1750   10.9640 C.2   173  CYS173      0.2625
     78  O         17.0310    0.1030   10.9750 O.2   173  CYS173     -0.2714
     79  CB        20.3320    0.8180    9.9310 C.3   173  CYS173      0.0997
     80  SG        21.7100    0.1290   10.8790 S.3   173  CYS173     -0.0797
     81  N         18.8520   -0.6080   12.0580 N.am  174  GLN174     -0.1977
     82  CA        18.2020   -0.6850   13.3430 C.3   174  GLN174      0.1601
     83  C         17.5000    0.6470   13.6590 C.2   174  GLN174      0.2287
     84  O         18.0350    1.7300   13.4520 O.2   174  GLN174     -0.2864
     85  CB        19.1810   -1.0540   14.4520 C.3   174  GLN174      0.0394
     86  CG        19.3950   -2.5560   14.5890 C.3   174  GLN174      0.0908
     87  CD        20.2150   -3.1460   13.4550 C.2   174  GLN174      0.2608
     88  OE1       21.0970   -2.4340   12.9470 O.2   174  GLN174     -0.2717
     89  NE2       19.9560   -4.3990   13.0720 N.am  174  GLN174     -0.0878
     90  N         13.1450   -0.2850   11.5580 N.3   177  SER177     -0.1217
     91  CA        12.2550   -1.4250   11.6440 C.3   177  SER177      0.1889
     92  C         10.7910   -1.0430   11.7190 C.2   177  SER177      0.2288
     93  O         10.4280   -0.1750   12.4900 O.2   177  SER177     -0.2866
     94  CB        12.5550   -2.2550   12.8890 C.3   177  SER177      0.2089
     95  OG        13.7770   -2.9120   12.7510 O.3   177  SER177     -0.2183
     96  N         10.2050   -2.3690    6.7260 N.3   191  VAL191     -0.1231
     97  CA        11.5930   -2.6040    7.1140 C.3   191  VAL191      0.1692
     98  C         11.6570   -3.7910    8.0650 C.2   191  VAL191      0.2593
     99  O         11.0420   -3.7550    9.1220 O.2   191  VAL191     -0.2718
    100  CB        12.1900   -1.3380    7.7520 C.3   191  VAL191      0.0266
    101  CG1       13.6370   -1.6050    8.1870 C.3   191  VAL191      0.0020
    102  CG2       12.1470   -0.1200    6.8490 C.3   191  VAL191      0.0020
    103  N         12.3680   -4.8400    7.7080 N.am  192  SER192     -0.1938
    104  CA        12.3810   -6.0920    8.4540 C.3   192  SER192      0.2055
    105  C         13.7750   -6.5070    8.9180 C.2   192  SER192      0.2643
    106  O         14.0070   -6.5110   10.1270 O.2   192  SER192     -0.2714
    107  CB        11.6680   -7.1610    7.6300 C.3   192  SER192      0.2130
    108  OG        11.5820   -8.4270    8.3230 O.3   192  SER192     -0.2179
    109  N         14.7110   -6.8420    8.0260 N.am  193  TRP193     -0.1959
    110  CA        16.0130   -7.3680    8.4920 C.3   193  TRP193      0.1771
    111  C         17.0820   -7.1710    7.4300 C.2   193  TRP193      0.2620
    112  O         16.8340   -6.6500    6.3420 O.2   193  TRP193     -0.2715
    113  CB        15.8610   -8.8230    8.8890 C.3   193  TRP193      0.0590
    114  CG        15.4880   -9.8520    7.8860 C.ar  193  TRP193      0.0006
    115  CD1       14.2330  -10.2130    7.4560 C.ar  193  TRP193      0.0946
    116  CD2       16.3720  -10.7180    7.1360 C.ar  193  TRP193      0.0152
    117  NE1       14.2800  -11.2260    6.5180 N.ar  193  TRP193     -0.2442
    118  CE2       15.5830  -11.5480    6.3030 C.ar  193  TRP193      0.0810
    119  CE3       17.7640  -10.8550    7.1110 C.ar  193  TRP193      0.0012
    120  CZ2       16.1610  -12.4800    5.4720 C.ar  193  TRP193      0.0191
    121  CZ3       18.3470  -11.7820    6.2810 C.ar  193  TRP193      0.0001
    122  CH2       17.5370  -12.5880    5.4660 C.ar  193  TRP193      0.0015
    123  N         18.2820   -7.6130    7.7930 N.am  194  GLY194     -0.1940
    124  CA        19.4330   -7.6060    6.9420 C.3   194  GLY194      0.2014
    125  C         20.6720   -8.0410    7.7070 C.2   194  GLY194      0.2640
    126  O         20.6170   -8.1790    8.9190 O.2   194  GLY194     -0.2714
    127  N         21.7540   -8.2540    6.9770 N.am  195  SER195     -0.1935
    128  CA        23.0340   -8.5780    7.6090 C.3   195  SER195      0.2055
    129  C         23.8140   -7.2850    7.8110 C.2   195  SER195      0.2644
    130  O         24.2430   -6.6720    6.8280 O.2   195  SER195     -0.2714
    131  CB        23.8840   -9.5200    6.7720 C.3   195  SER195      0.2130
    132  OG        25.0730   -9.8160    7.4270 O.3   195  SER195     -0.2179
    133  N         23.9650   -6.8630    9.0630 N.am  196  GLY196     -0.1939
    134  CA        24.5230   -5.5330    9.2710 C.3   196  GLY196      0.2014
    135  C         23.6160   -4.4470    8.6720 C.2   196  GLY196      0.2639
    136  O         22.4410   -4.6790    8.4810 O.2   196  GLY196     -0.2714
    137  N         24.1850   -3.3140    8.3330 N.am  197  CYS197     -0.1967
    138  CA        23.5620   -2.1990    7.6250 C.3   197  CYS197      0.1712
    139  C         24.5530   -1.6190    6.6200 C.2   197  CYS197      0.2296
    140  O         25.6920   -1.2880    6.9500 O.2   197  CYS197     -0.2864
    141  CB        23.0890   -1.0520    8.5120 C.3   197  CYS197      0.0983
    142  SG        22.1290   -1.6160    9.9080 S.3   197  CYS197     -0.0798
    143  N         24.9560   -7.2160    0.8680 N.3   202  LYS202     -0.1231
    144  CA        23.9520   -7.5770    1.8780 C.3   202  LYS202      0.1678
    145  C         22.8800   -6.4820    1.9110 C.2   202  LYS202      0.2434
    146  O         22.9220   -5.5450    2.7250 O.2   202  LYS202     -0.2733
    147  CB        24.6650   -7.7430    3.1990 C.3   202  LYS202      0.0284
    148  CG        25.6120   -8.9290    3.2980 C.3   202  LYS202      0.0035
    149  CD        24.8800  -10.2600    3.2360 C.3   202  LYS202      0.0206
    150  CE        25.7100  -11.4860    2.8500 C.3   202  LYS202      0.1093
    151  NZ        25.0550  -12.7740    3.2630 N.3   202  LYS202     -0.1314
    152  N         21.9240   -6.5590    0.9580 N.am  203  PRO203     -0.2718
    153  CA        20.9060   -5.5150    0.8580 C.3   203  PRO203      0.1535
    154  C         19.8990   -5.6350    1.9920 C.2   203  PRO203      0.2599
    155  O         19.8860   -6.5910    2.7740 O.2   203  PRO203     -0.2715
    156  CB        20.2800   -5.7970   -0.5390 C.3   203  PRO203      0.0310
    157  CG        20.4170   -7.2900   -0.6460 C.3   203  PRO203      0.0237
    158  CD        21.7580   -7.6280   -0.0500 C.3   203  PRO203      0.0939
    159  N         18.9810   -4.6880    2.0680 N.am  204  GLY204     -0.1941
    160  CA        17.8860   -4.7760    3.0300 C.3   204  GLY204      0.2014
    161  C         16.8370   -5.7840    2.6040 C.2   204  GLY204      0.2639
    162  O         16.5880   -5.9740    1.3990 O.2   204  GLY204     -0.2714
    163  N         16.2020   -6.4180    3.5880 N.am  205  VAL205     -0.1963
    164  CA        15.0960   -7.3620    3.3870 C.3   205  VAL205      0.1727
    165  C         13.8510   -6.7880    4.0050 C.2   205  VAL205      0.2616
    166  O         13.8720   -6.2640    5.1420 O.2   205  VAL205     -0.2715
    167  CB        15.4180   -8.7630    3.9270 C.3   205  VAL205      0.0290
    168  CG1       14.3640   -9.7140    3.4480 C.3   205  VAL205      0.0023
    169  CG2       16.8070   -9.1810    3.4700 C.3   205  VAL205      0.0023
    170  N         12.7530   -6.8340    3.2560 N.am  206  TYR206     -0.1974
    171  CA        11.4820   -6.1570    3.5450 C.3   206  TYR206      0.1639
    172  C         10.3120   -7.1100    3.4810 C.2   206  TYR206      0.2290
    173  O         10.2880   -7.9790    2.5840 O.2   206  TYR206     -0.2864
    174  CB        11.2850   -4.9880    2.5270 C.3   206  TYR206      0.0560
    175  CG        12.4890   -4.0540    2.6460 C.ar  206  TYR206     -0.0198
    176  CD1       12.4810   -3.0910    3.6340 C.ar  206  TYR206     -0.0009
    177  CD2       13.6290   -4.1020    1.8630 C.ar  206  TYR206     -0.0009
    178  CE1       13.5460   -2.2310    3.7960 C.ar  206  TYR206      0.0417
    179  CE2       14.7020   -3.2560    2.0490 C.ar  206  TYR206      0.0417
    180  CZ        14.6770   -2.2750    3.0180 C.ar  206  TYR206      0.1957
    181  OH        15.7020   -1.4120    3.2810 O.3   206  TYR206     -0.2866
@<TRIPOS>BOND
     1   157   156    1
     2   157   158    1
     3   156   153    1
     4   158   152    1
     5    40    41    1
     6   153   152    1
     7   153   154    1
     8   143   144    1
     9   152   145   am
    10    42    43    2
    11    42    41    1
    12   162   161    2
    13    41    44    1
    14   177   179   ar
    15   177   175   ar
    16   144   145    1
    17   144   147    1
    18   145   146    2
    19    47    49   ar
    20    47    45   ar
    21   154   159   am
    22   154   155    2
    23   179   180   ar
    24   159   160    1
    25    44    45    1
    26    49    50   ar
    27   174   175    1
    28   174   171    1
    29   173   172    2
    30   161   160    1
    31   161   163   am
    32    45    46   ar
    33   175   176   ar
    34   150   149    1
    35   150   151    1
    36    61    62    1
    37    52    53    1
    38   180   181    1
    39   180   178   ar
    40   147   148    1
    41   149   148    1
    42   170   171    1
    43   170   165   am
    44   164   163    1
    45   164   167    1
    46   164   165    1
    47   168   167    1
    48    62    65    1
    49    62    63    1
    50    50    51    1
    51    50    48   ar
    52    54    53    1
    53    54    55    2
    54   169   167    1
    55   172   171    1
    56   176   178   ar
    57    46    48   ar
    58    68    66   ar
    59    65    66    1
    60    53    56    1
    61   165   166    2
    62    66    67   ar
    63    60    58   am
    64    63    69   am
    65    63    64    2
    66    56    57    1
    67    69    70    1
    68    58    57    1
    69    58    59    2
    70   122   120   ar
    71   122   121   ar
    72   120   118   ar
    73    74    73    1
    74    73    70    1
    75    70    71    1
    76   121   119   ar
    77   118   117   ar
    78   118   116   ar
    79   112   111    2
    80   117   115   ar
    81   139   140    2
    82   139   138    1
    83    96    97    1
    84   131   132    1
    85   131   128    1
    86   130   129    2
    87   102   100    1
    88   124   125    1
    89   124   123    1
    90   127   128    1
    91   127   125   am
    92    72    71    2
    93   119   116   ar
    94    97   100    1
    95    97    98    1
    96   116   114   ar
    97    71    75   am
    98   111   123   am
    99   111   110    1
   100   115   114   ar
   101   128   129    1
   102   138   137    1
   103   138   141    1
   104   107   108    1
   105   107   104    1
   106   125   126    2
   107   103    98   am
   108   103   104    1
   109   100   101    1
   110   129   133   am
   111   114   113    1
   112   109   110    1
   113   109   105   am
   114    98    99    2
   115   137   135   am
   116   104   105    1
   117   136   135    2
   118   110   113    1
   119   141   142    1
   120    75    76    1
   121    35    34    2
   122    28    27    2
   123   135   134    1
   124   105   106    2
   125   133   134    1
   126    34    33    1
   127    29    31    1
   128    29    30    1
   129    29    26    1
   130    76    79    1
   131    76    77    1
   132    27    26    1
   133    27    32   am
   134   142    80    1
   135    79    80    1
   136    36    33    1
   137    36    37    1
   138    26    25    1
   139    33    32    1
   140    77    78    2
   141    77    81   am
   142    38    37    1
   143    37    39    1
   144    90    91    1
   145    91    92    1
   146    91    94    1
   147    25    19   am
   148    92    93    2
   149    81    82    1
   150    20    19    2
   151     9     7   ar
   152     9    10   ar
   153    19    18    1
   154    95    94    1
   155     7     6   ar
   156    88    87    2
   157    89    87   am
   158    82    83    1
   159    82    85    1
   160    84    83    2
   161    87    86    1
   162    10     8   ar
   163    18    21    1
   164    18    17    1
   165     6     8   ar
   166     6     5    1
   167    21    22    1
   168    17    13   am
   169    85    86    1
   170     1     2    1
   171    11    12    1
   172    13    14    2
   173    13    12    1
   174     5     2    1
   175    12    15    1
   176     2     3    1
   177    22    24   am
   178    22    23    2
   179     3     4    2
   180    15    16    1
