@<TRIPOS>MOLECULE
tmp/2zq9A00.pdb
 100 94 0 0 0
SMALL
GASTEIGER

@<TRIPOS>ATOM
      1  N         37.7820  -15.8140    5.9810 N.3    43  SER43      -0.1217
      2  CA        37.7840  -17.2760    6.0040 C.3    43  SER43       0.1889
      3  C         36.5410  -17.9090    5.3800 C.2    43  SER43       0.2288
      4  O         36.5100  -19.1310    5.2220 O.2    43  SER43      -0.2866
      5  CB        37.9340  -17.8100    7.4240 C.3    43  SER43       0.2089
      6  OG        39.2280  -17.5570    7.9820 O.3    43  SER43      -0.2183
      7  N         49.0680  -18.2790   11.7150 N.3    77  ASN77      -0.1225
      8  CA        48.5580  -17.5250   12.8560 C.3    77  ASN77       0.1785
      9  C         47.4820  -18.2420   13.6690 C.2    77  ASN77       0.2597
     10  O         47.2260  -17.8640   14.8080 O.2    77  ASN77      -0.2718
     11  CB        47.9860  -16.1910   12.3820 C.3    77  ASN77       0.1169
     12  CG        46.7890  -16.3860   11.4860 C.2    77  ASN77       0.2627
     13  OD1       46.8240  -17.2130   10.5740 O.2    77  ASN77      -0.2716
     14  ND2       45.7130  -15.6410   11.7450 N.am   77  ASN77      -0.0877
     15  N         46.8210  -19.2350   13.0760 N.am   78  TYR78      -0.1976
     16  CA        45.6690  -19.8790   13.7150 C.3    78  TYR78       0.1639
     17  C         45.5330  -21.2610   13.0840 C.2    78  TYR78       0.2290
     18  O         45.1870  -21.3880   11.8950 O.2    78  TYR78      -0.2864
     19  CB        44.3780  -19.0530   13.5250 C.3    78  TYR78       0.0560
     20  CG        43.2740  -19.6200   14.3620 C.ar   78  TYR78      -0.0198
     21  CD1       43.2390  -19.3830   15.7280 C.ar   78  TYR78      -0.0009
     22  CD2       42.3050  -20.4530   13.8110 C.ar   78  TYR78      -0.0009
     23  CE1       42.2640  -19.9360   16.5270 C.ar   78  TYR78       0.0417
     24  CE2       41.3050  -21.0160   14.6050 C.ar   78  TYR78       0.0417
     25  CZ        41.2970  -20.7460   15.9670 C.ar   78  TYR78       0.1957
     26  OH        40.3460  -21.2690   16.8000 O.3    78  TYR78      -0.2866
     27  N         38.0650  -23.4810   11.0780 N.3   103  SER103     -0.1217
     28  CA        38.7380  -22.3650   10.4060 C.3   103  SER103      0.1889
     29  C         40.2530  -22.4350   10.5760 C.2   103  SER103      0.2288
     30  O         40.9270  -21.4230   10.7520 O.2   103  SER103     -0.2866
     31  CB        38.1690  -20.9990   10.7860 C.3   103  SER103      0.2089
     32  OG        38.2070  -20.1370    9.6390 O.3   103  SER103     -0.2183
     33  N         43.7770  -22.2880    9.4880 N.3   105  ASN105     -0.1240
     34  CA        44.4150  -21.6230    8.3610 C.3   105  ASN105      0.1653
     35  C         45.4890  -22.4640    7.6910 C.2   105  ASN105      0.2266
     36  O         45.7060  -22.3310    6.4800 O.2   105  ASN105     -0.2867
     37  CB        45.0010  -20.2890    8.7870 C.3   105  ASN105      0.1155
     38  CG        43.9630  -19.2020    8.9490 C.2   105  ASN105      0.2627
     39  OD1       42.8310  -19.3240    8.4690 O.2   105  ASN105     -0.2716
     40  ND2       44.3570  -18.0970    9.5600 N.am  105  ASN105     -0.0877
     41  N         47.6730  -16.1890    6.2030 N.3   140  PRO140     -0.2116
     42  CA        46.6620  -15.3050    6.7620 C.3   140  PRO140      0.1372
     43  C         46.3400  -14.0570    5.9580 C.2   140  PRO140      0.2244
     44  O         45.3890  -13.3530    6.3150 O.2   140  PRO140     -0.2868
     45  CB        47.3190  -14.8810    8.0810 C.3   140  PRO140      0.0268
     46  CG        48.7800  -14.7940    7.7360 C.3   140  PRO140      0.0207
     47  CD        48.9980  -15.9670    6.8310 C.3   140  PRO140      0.0892
     48  N         43.0160  -12.2300    4.7790 N.3   143  ASN143     -0.1240
     49  CA        42.1120  -11.5860    5.7340 C.3   143  ASN143      0.1653
     50  C         42.4130  -10.1160    6.0240 C.2   143  ASN143      0.2266
     51  O         41.8290   -9.5540    6.9530 O.2   143  ASN143     -0.2867
     52  CB        42.1140  -12.3560    7.0530 C.3   143  ASN143      0.1155
     53  CG        41.7410  -13.7980    6.8770 C.2   143  ASN143      0.2627
     54  OD1       40.5780  -14.1370    6.6500 O.2   143  ASN143     -0.2716
     55  ND2       42.7330  -14.6720    6.9850 N.am  143  ASN143     -0.0877
     56  N         32.5060  -22.7500   14.8080 N.3   189  THR189     -0.1218
     57  CA        32.8820  -21.3530   15.0080 C.3   189  THR189      0.1862
     58  C         31.7430  -20.3410   14.8960 C.2   189  THR189      0.2287
     59  O         31.9820  -19.1320   15.0190 O.2   189  THR189     -0.2866
     60  CB        33.9250  -20.9320   13.9740 C.3   189  THR189      0.1770
     61  OG1       33.3080  -20.9520   12.6810 O.3   189  THR189     -0.2211
     62  CG2       35.1230  -21.8480   13.9610 C.3   189  THR189      0.0375
     63  N         29.8240  -21.1770    7.4490 N.3   207  LYS207     -0.1231
     64  CA        31.2380  -20.8850    7.5620 C.3   207  LYS207      0.1693
     65  C         31.3920  -19.4050    7.8760 C.2   207  LYS207      0.2593
     66  O         30.8840  -18.5610    7.1400 O.2   207  LYS207     -0.2718
     67  CB        31.9930  -21.2070    6.2670 C.3   207  LYS207      0.0285
     68  CG        33.4890  -20.9010    6.3460 C.3   207  LYS207      0.0035
     69  CD        34.2440  -21.9090    7.2140 C.3   207  LYS207      0.0206
     70  CE        35.6380  -21.4500    7.5970 C.3   207  LYS207      0.1093
     71  NZ        35.5870  -20.4990    8.7350 N.3   207  LYS207     -0.1314
     72  N         32.1260  -19.1080    8.9400 N.am  208  THR208     -0.1939
     73  CA        32.4230  -17.7600    9.3760 C.3   208  THR208      0.2028
     74  C         33.7050  -17.2090    8.7470 C.2   208  THR208      0.2643
     75  O         34.5160  -17.9330    8.1650 O.2   208  THR208     -0.2714
     76  CB        32.6030  -17.7710   10.9030 C.3   208  THR208      0.1808
     77  OG1       33.5640  -18.7820   11.2370 O.3   208  THR208     -0.2208
     78  CG2       31.3020  -18.0610   11.6270 C.3   208  THR208      0.0379
     79  N         33.9020  -15.9100    8.9330 N.am  209  GLY209     -0.1939
     80  CA        35.1990  -15.3100    8.7170 C.3   209  GLY209      0.2014
     81  C         35.3540  -14.0890    9.6090 C.2   209  GLY209      0.2640
     82  O         34.3790  -13.4180    9.9400 O.2   209  GLY209     -0.2714
     83  N         36.5940  -13.8390   10.0130 N.am  210  SER210     -0.1935
     84  CA        36.9310  -12.6530   10.7850 C.3   210  SER210      0.2055
     85  C         38.2730  -12.1450   10.2990 C.2   210  SER210      0.2644
     86  O         39.2510  -12.8790   10.1950 O.2   210  SER210     -0.2714
     87  CB        36.9510  -12.9210   12.2950 C.3   210  SER210      0.2130
     88  OG        35.6370  -12.9710   12.8370 O.3   210  SER210     -0.2179
     89  N         38.3040  -10.8680    9.9710 N.am  211  GLY211     -0.1939
     90  CA        39.5080  -10.2540    9.4620 C.3   211  GLY211      0.2014
     91  C         39.7560   -8.8960   10.0680 C.2   211  GLY211      0.2638
     92  O         39.0780   -8.4590   11.0070 O.2   211  GLY211     -0.2714
     93  N         40.7510   -8.2130    9.5030 N.am  212  ASP212     -0.1971
     94  CA        41.0200   -6.8430    9.8970 C.3   212  ASP212      0.1709
     95  C         39.8630   -5.9370    9.4490 C.2   212  ASP212      0.2293
     96  O         38.9150   -6.3860    8.7910 O.2   212  ASP212     -0.2864
     97  CB        42.3520   -6.3600    9.3340 C.3   212  ASP212      0.1436
     98  CG        43.5700   -6.9880   10.0000 C.2   212  ASP212      0.3671
     99  OD1       43.4610   -7.6060   11.0750 O.co2 212  ASP212     -0.2456
    100  OD2       44.6680   -6.8190    9.4320 O.co2 212  ASP212     -0.2456
@<TRIPOS>BOND
     1    48    49    1
     2     4     3    2
     3     3     2    1
     4    49    50    1
     5    49    52    1
     6    43    44    2
     7    43    42    1
     8     1     2    1
     9     2     5    1
    10    50    51    2
    11    41    42    1
    12    41    47    1
    13    67    68    1
    14    67    64    1
    15    68    69    1
    16    36    35    2
    17    54    53    2
    18    42    45    1
    19    47    46    1
    20    53    55   am
    21    53    52    1
    22    66    65    2
    23    69    70    1
    24     5     6    1
    25    63    64    1
    26    64    65    1
    27    70    71    1
    28    35    34    1
    29    46    45    1
    30    65    72   am
    31    75    74    2
    32    34    37    1
    33    34    33    1
    34    39    38    2
    35    80    79    1
    36    80    81    1
    37    74    79   am
    38    74    73    1
    39    37    38    1
    40    96    95    2
    41    72    73    1
    42    38    40   am
    43    97    94    1
    44    97    98    1
    45    73    76    1
    46   100    98   ar
    47    95    94    1
    48    90    89    1
    49    90    91    1
    50    93    94    1
    51    93    91   am
    52    81    82    2
    53    81    83   am
    54    32    31    1
    55    89    85   am
    56    98    99   ar
    57    83    84    1
    58    91    92    2
    59    86    85    2
    60    85    84    1
    61    28    29    1
    62    28    31    1
    63    28    27    1
    64    13    12    2
    65    29    30    2
    66    84    87    1
    67    76    77    1
    68    76    78    1
    69    12    14   am
    70    12    11    1
    71     7     8    1
    72    18    17    2
    73    87    88    1
    74    11     8    1
    75    61    60    1
    76     8     9    1
    77    15     9   am
    78    15    16    1
    79    17    16    1
    80    19    16    1
    81    19    20    1
    82     9    10    2
    83    22    20   ar
    84    22    24   ar
    85    62    60    1
    86    60    57    1
    87    20    21   ar
    88    24    25   ar
    89    56    57    1
    90    58    57    1
    91    58    59    2
    92    21    23   ar
    93    25    23   ar
    94    25    26    1
