@<TRIPOS>MOLECULE
tmp/2zqcA00.pdb
 114 108 0 0 0
SMALL
GASTEIGER

@<TRIPOS>ATOM
      1  N         37.6670  -15.7970    5.9340 N.3    43  SER43      -0.1217
      2  CA        37.6830  -17.2490    5.9450 C.3    43  SER43       0.1889
      3  C         36.4380  -17.8890    5.3240 C.2    43  SER43       0.2288
      4  O         36.4100  -19.1150    5.1710 O.2    43  SER43      -0.2866
      5  CB        37.8400  -17.7840    7.3480 C.3    43  SER43       0.2089
      6  OG        39.1180  -17.4470    7.9270 O.3    43  SER43      -0.2183
      7  N         48.8440  -18.3330   11.9490 N.3    77  ASN77      -0.1225
      8  CA        48.2910  -17.5640   13.0670 C.3    77  ASN77       0.1785
      9  C         47.1960  -18.2740   13.8640 C.2    77  ASN77       0.2597
     10  O         46.9120  -17.8800   14.9950 O.2    77  ASN77      -0.2718
     11  CB        47.7350  -16.2330   12.5660 C.3    77  ASN77       0.1169
     12  CG        46.5230  -16.4190   11.6870 C.2    77  ASN77       0.2627
     13  OD1       46.5170  -17.3200   10.8430 O.2    77  ASN77      -0.2716
     14  ND2       45.4820  -15.6010   11.8930 N.am   77  ASN77      -0.0877
     15  N         46.5660  -19.2990   13.2880 N.am   78  TYR78      -0.1976
     16  CA        45.3560  -19.9240   13.8910 C.3    78  TYR78       0.1639
     17  C         45.2050  -21.2860   13.2470 C.2    78  TYR78       0.2290
     18  O         44.8430  -21.4050   12.0690 O.2    78  TYR78      -0.2864
     19  CB        44.1090  -19.0590   13.6480 C.3    78  TYR78       0.0560
     20  CG        42.8860  -19.5220   14.3960 C.ar   78  TYR78      -0.0198
     21  CD1       42.6300  -19.0670   15.6890 C.ar   78  TYR78      -0.0009
     22  CD2       41.9860  -20.4260   13.8210 C.ar   78  TYR78      -0.0009
     23  CE1       41.5190  -19.4930   16.3840 C.ar   78  TYR78       0.0417
     24  CE2       40.8680  -20.8620   14.5060 C.ar   78  TYR78       0.0417
     25  CZ        40.6430  -20.3900   15.7870 C.ar   78  TYR78       0.1957
     26  OH        39.5280  -20.7730   16.4820 O.3    78  TYR78      -0.2866
     27  N         37.8930  -23.7160   11.1360 N.3   103  SER103     -0.1217
     28  CA        38.6090  -22.6270   10.4670 C.3   103  SER103      0.1889
     29  C         40.1100  -22.6890   10.7300 C.2   103  SER103      0.2288
     30  O         40.7630  -21.6740   10.9960 O.2   103  SER103     -0.2866
     31  CB        38.0180  -21.2430   10.7470 C.3   103  SER103      0.2089
     32  OG        38.1680  -20.4320    9.5770 O.3   103  SER103     -0.2183
     33  N         43.6370  -22.4210    9.6340 N.3   105  ASN105     -0.1240
     34  CA        44.2740  -21.7290    8.5050 C.3   105  ASN105      0.1653
     35  C         45.3580  -22.5520    7.8250 C.2   105  ASN105      0.2266
     36  O         45.5660  -22.4120    6.6150 O.2   105  ASN105     -0.2867
     37  CB        44.8380  -20.3860    8.9340 C.3   105  ASN105      0.1155
     38  CG        43.7860  -19.2920    9.0090 C.2   105  ASN105      0.2627
     39  OD1       42.7020  -19.4020    8.4470 O.2   105  ASN105     -0.2716
     40  ND2       44.1280  -18.2030    9.6860 N.am  105  ASN105     -0.0877
     41  N         47.3740  -16.3310    6.5720 N.3   140  PRO140     -0.2102
     42  CA        46.2840  -15.4500    6.9830 C.3   140  PRO140      0.1504
     43  C         46.1380  -14.1540    6.2130 C.2   140  PRO140      0.2576
     44  O         45.2120  -13.3980    6.5240 O.2   140  PRO140     -0.2718
     45  CB        46.6340  -15.1530    8.4390 C.3   140  PRO140      0.0282
     46  CG        48.0890  -15.0480    8.4040 C.3   140  PRO140      0.0208
     47  CD        48.5660  -16.1100    7.4100 C.3   140  PRO140      0.0893
     48  N         47.0040  -13.8690    5.2370 N.am  141  THR141     -0.1953
     49  CA        46.9290  -12.5660    4.5840 C.3   141  THR141      0.1897
     50  C         45.6380  -12.3600    3.7990 C.2   141  THR141      0.2313
     51  O         45.2540  -11.2120    3.5810 O.2   141  THR141     -0.2863
     52  CB        48.1600  -12.2330    3.7170 C.3   141  THR141      0.1794
     53  OG1       48.2620  -13.1590    2.6310 O.3   141  THR141     -0.2208
     54  CG2       49.4420  -12.2340    4.5400 C.3   141  THR141      0.0378
     55  N         42.8750  -12.3910    4.9210 N.3   143  ASN143     -0.1225
     56  CA        41.9430  -11.7290    5.8370 C.3   143  ASN143      0.1785
     57  C         42.2820  -10.2750    6.1800 C.2   143  ASN143      0.2597
     58  O         41.6950   -9.7150    7.1170 O.2   143  ASN143     -0.2718
     59  CB        41.8020  -12.5170    7.1530 C.3   143  ASN143      0.1169
     60  CG        41.5320  -13.9820    6.9320 C.2   143  ASN143      0.2627
     61  OD1       40.4130  -14.3980    6.6230 O.2   143  ASN143     -0.2716
     62  ND2       42.5670  -14.7870    7.1050 N.am  143  ASN143     -0.0877
     63  N         43.1880   -9.6370    5.4350 N.am  144  THR144     -0.1953
     64  CA        43.5150   -8.2460    5.7470 C.3   144  THR144      0.1897
     65  C         42.3170   -7.3070    5.6040 C.2   144  THR144      0.2313
     66  O         42.2260   -6.3140    6.3260 O.2   144  THR144     -0.2863
     67  CB        44.7060   -7.7460    4.9070 C.3   144  THR144      0.1794
     68  OG1       44.4780   -7.9720    3.5110 O.3   144  THR144     -0.2208
     69  CG2       46.0050   -8.4020    5.3180 C.3   144  THR144      0.0378
     70  N         32.2270  -22.9040   14.7400 N.3   189  THR189     -0.1218
     71  CA        32.6300  -21.5130   14.9680 C.3   189  THR189      0.1862
     72  C         31.5090  -20.4890   14.8360 C.2   189  THR189      0.2287
     73  O         31.7560  -19.2870   14.9780 O.2   189  THR189     -0.2866
     74  CB        33.7160  -21.1000   13.9590 C.3   189  THR189      0.1770
     75  OG1       33.1180  -21.0440   12.6540 O.3   189  THR189     -0.2211
     76  CG2       34.8920  -22.0510   13.9460 C.3   189  THR189      0.0375
     77  N         29.7310  -21.1830    7.3470 N.3   207  LYS207     -0.1231
     78  CA        31.1490  -20.9020    7.4600 C.3   207  LYS207      0.1693
     79  C         31.3170  -19.4280    7.7950 C.2   207  LYS207      0.2593
     80  O         30.8460  -18.5640    7.0460 O.2   207  LYS207     -0.2718
     81  CB        31.9010  -21.2150    6.1620 C.3   207  LYS207      0.0285
     82  CG        33.3980  -20.9110    6.2510 C.3   207  LYS207      0.0035
     83  CD        34.1600  -21.9370    7.0790 C.3   207  LYS207      0.0206
     84  CE        35.5470  -21.4810    7.4740 C.3   207  LYS207      0.1093
     85  NZ        35.4940  -20.5450    8.6370 N.3   207  LYS207     -0.1314
     86  N         32.0150  -19.1440    8.8930 N.am  208  THR208     -0.1939
     87  CA        32.3160  -17.7970    9.3530 C.3   208  THR208      0.2028
     88  C         33.5980  -17.2500    8.7220 C.2   208  THR208      0.2643
     89  O         34.4230  -17.9810    8.1500 O.2   208  THR208     -0.2714
     90  CB        32.4810  -17.8030   10.8780 C.3   208  THR208      0.1808
     91  OG1       33.4060  -18.8400   11.2400 O.3   208  THR208     -0.2208
     92  CG2       31.1620  -18.0480   11.5830 C.3   208  THR208      0.0379
     93  N         33.7970  -15.9490    8.8960 N.am  209  GLY209     -0.1939
     94  CA        35.1080  -15.3550    8.6570 C.3   209  GLY209      0.2014
     95  C         35.2170  -14.0620    9.4430 C.2   209  GLY209      0.2640
     96  O         34.2580  -13.3440    9.6040 O.2   209  GLY209     -0.2714
     97  N         36.3870  -13.8040    9.9870 N.am  210  SER210     -0.1935
     98  CA        36.6460  -12.5430   10.6620 C.3   210  SER210      0.2055
     99  C         38.0620  -12.1080   10.3280 C.2   210  SER210      0.2644
    100  O         39.0090  -12.8790   10.3150 O.2   210  SER210     -0.2714
    101  CB        36.3690  -12.6080   12.1800 C.3   210  SER210      0.2130
    102  OG        34.9820  -12.5980   12.4980 O.3   210  SER210     -0.2179
    103  N         38.1850  -10.8280   10.0350 N.am  211  GLY211     -0.1939
    104  CA        39.4580  -10.2500    9.6550 C.3   211  GLY211      0.2014
    105  C         39.6290   -8.8610   10.2010 C.2   211  GLY211      0.2638
    106  O         38.8720   -8.4120   11.0770 O.2   211  GLY211     -0.2714
    107  N         40.6440   -8.1740    9.6850 N.am  212  ASP212     -0.1971
    108  CA        40.8550   -6.7870   10.0510 C.3   212  ASP212      0.1709
    109  C         39.7020   -5.9180    9.5430 C.2   212  ASP212      0.2293
    110  O         38.7810   -6.3920    8.8500 O.2   212  ASP212     -0.2864
    111  CB        42.2020   -6.2830    9.5320 C.3   212  ASP212      0.1436
    112  CG        43.3710   -6.5670   10.4680 C.2   212  ASP212      0.3671
    113  OD1       43.1840   -7.0270   11.6180 O.co2 212  ASP212     -0.2456
    114  OD2       44.5050   -6.2920   10.0360 O.co2 212  ASP212     -0.2456
@<TRIPOS>BOND
     1    53    52    1
     2    68    67    1
     3    51    50    2
     4    52    54    1
     5    52    49    1
     6    50    49    1
     7    49    48    1
     8    67    69    1
     9    67    64    1
    10    55    56    1
    11     4     3    2
    12    48    43   am
    13     3     2    1
    14    63    64    1
    15    63    57   am
    16    65    64    1
    17    65    66    2
    18    56    57    1
    19    56    59    1
    20     1     2    1
    21     2     5    1
    22    81    82    1
    23    81    78    1
    24    57    58    2
    25    43    44    2
    26    43    42    1
    27    82    83    1
    28    41    42    1
    29    41    47    1
    30    36    35    2
    31    61    60    2
    32    60    62   am
    33    60    59    1
    34    42    45    1
    35    80    79    2
    36    83    84    1
    37    77    78    1
    38     5     6    1
    39    47    46    1
    40    78    79    1
    41    84    85    1
    42    79    86   am
    43    35    34    1
    44    89    88    2
    45    46    45    1
    46    39    38    2
    47    34    37    1
    48    34    33    1
    49    94    93    1
    50    94    95    1
    51    88    93   am
    52    88    87    1
    53   110   109    2
    54    86    87    1
    55    37    38    1
    56    38    40   am
    57    87    90    1
    58    95    96    2
    59    95    97   am
    60   111   108    1
    61   111   112    1
    62   109   108    1
    63    32    31    1
    64   104   103    1
    65   104   105    1
    66   107   108    1
    67   107   105   am
    68    97    98    1
    69   103    99   am
    70   114   112   ar
    71   105   106    2
    72   100    99    2
    73    99    98    1
    74    28    29    1
    75    28    31    1
    76    28    27    1
    77   112   113   ar
    78    98   101    1
    79    29    30    2
    80    13    12    2
    81    90    91    1
    82    90    92    1
    83    12    14   am
    84    12    11    1
    85     7     8    1
    86    18    17    2
    87   101   102    1
    88    11     8    1
    89    75    74    1
    90     8     9    1
    91    17    16    1
    92    15     9   am
    93    15    16    1
    94    19    16    1
    95    19    20    1
    96    22    20   ar
    97    22    24   ar
    98     9    10    2
    99    76    74    1
   100    74    71    1
   101    20    21   ar
   102    24    25   ar
   103    70    71    1
   104    72    71    1
   105    72    73    2
   106    21    23   ar
   107    25    23   ar
   108    25    26    1
