@<TRIPOS>MOLECULE
tmp/2zqoA00.pdb
 84 80 0 0 0
SMALL
GASTEIGER

@<TRIPOS>ATOM
      1  N         38.7480   13.9410   26.7040 N.3    16  ASP16      -0.1225
      2  CA        39.8040   13.4220   25.8140 C.3    16  ASP16       0.1805
      3  C         40.7150   14.5740   25.4180 C.2    16  ASP16       0.2598
      4  O         40.2130   15.6180   24.9870 O.2    16  ASP16      -0.2718
      5  CB        39.0870   12.8070   24.6120 C.3    16  ASP16       0.1424
      6  CG        40.0320   12.3240   23.4830 C.2    16  ASP16       0.3668
      7  OD1       39.9350   11.1340   23.1090 O.co2  16  ASP16      -0.2456
      8  OD2       40.7880   13.1400   22.9150 O.co2  16  ASP16      -0.2456
      9  N         42.0470   14.4270   25.5890 N.am   17  ILE17      -0.1966
     10  CA        42.9340   15.4620   25.0550 C.3    17  ILE17       0.1727
     11  C         43.0530   15.2470   23.5500 C.2    17  ILE17       0.2616
     12  O         43.6120   14.2360   23.1220 O.2    17  ILE17      -0.2715
     13  CB        44.3240   15.4550   25.7260 C.3    17  ILE17       0.0290
     14  CG1       44.1940   15.7590   27.2160 C.3    17  ILE17       0.0022
     15  CG2       45.2290   16.5160   25.0710 C.3    17  ILE17       0.0023
     16  CD1       45.5730   15.4860   27.9620 C.3    17  ILE17       0.0001
     17  N         42.5050   16.1870   22.7700 N.am   18  GLU18      -0.1963
     18  CA        42.3480   16.0690   21.3160 C.3    18  GLU18       0.1733
     19  C         43.6670   15.6950   20.6260 C.2    18  GLU18       0.2617
     20  O         44.7280   16.3260   20.8600 O.2    18  GLU18      -0.2715
     21  CB        41.7910   17.4000   20.7820 C.3    18  GLU18       0.0429
     22  CG        41.5810   17.5020   19.2850 C.3    18  GLU18       0.1163
     23  CD        40.6210   18.6190   18.9560 C.2    18  GLU18       0.3649
     24  OE1       39.5460   18.3150   18.3820 O.co2  18  GLU18      -0.2457
     25  OE2       40.9240   19.7790   19.3120 O.co2  18  GLU18      -0.2457
     26  N         43.5790   14.6180   19.8420 N.am   19  GLY19      -0.1940
     27  CA        44.6740   14.0360   19.1090 C.3    19  GLY19       0.2014
     28  C         45.8270   13.4960   19.9280 C.2    19  GLY19       0.2638
     29  O         46.9350   13.3460   19.3970 O.2    19  GLY19      -0.2714
     30  N         45.5830   13.2160   21.2110 N.am   20  GLN20      -0.1977
     31  CA        46.6530   12.7790   22.1130 C.3    20  GLN20       0.1601
     32  C         47.8160   13.7530   22.1230 C.2    20  GLN20       0.2287
     33  O         48.9690   13.3430   22.2960 O.2    20  GLN20      -0.2864
     34  CB        47.1780   11.3990   21.6960 C.3    20  GLN20       0.0394
     35  CG        46.2690   10.2750   21.9020 C.3    20  GLN20       0.0908
     36  CD        47.0320    8.9620   21.9650 C.2    20  GLN20       0.2608
     37  OE1       47.6430    8.5330   20.9750 O.2    20  GLN20      -0.2717
     38  NE2       47.0250    8.3340   23.1360 N.am   20  GLN20      -0.0878
     39  N         38.2170   17.6840   24.6700 N.3    29  ILE29      -0.1245
     40  CA        36.9850   17.4670   23.9010 C.3    29  ILE29       0.1561
     41  C         36.2610   16.2100   24.4380 C.2    29  ILE29       0.2260
     42  O         36.8140   15.4990   25.2900 O.2    29  ILE29      -0.2867
     43  CB        37.3710   17.2390   22.4060 C.3    29  ILE29       0.0252
     44  CG1       38.3780   16.0850   22.3060 C.3    29  ILE29       0.0019
     45  CG2       37.8780   18.5410   21.7200 C.3    29  ILE29       0.0019
     46  CD1       38.4940   15.4790   20.9370 C.3    29  ILE29       0.0001
     47  N         34.9160   12.3940   23.3860 N.3    31  TRP31      -0.1241
     48  CA        35.3120   11.3770   22.3930 C.3    31  TRP31       0.1605
     49  C         34.8310   10.0200   22.8520 C.2    31  TRP31       0.2264
     50  O         34.6370    9.8040   24.0640 O.2    31  TRP31      -0.2867
     51  CB        36.8500   11.3580   22.2060 C.3    31  TRP31       0.0550
     52  CG        37.2490   10.7110   20.8980 C.ar   31  TRP31       0.0003
     53  CD1       37.7950    9.4670   20.7340 C.ar   31  TRP31       0.0946
     54  CD2       37.1010   11.2590   19.5800 C.ar   31  TRP31       0.0152
     55  NE1       37.9920    9.2050   19.3910 N.ar   31  TRP31      -0.2442
     56  CE2       37.5890   10.2960   18.6670 C.ar   31  TRP31       0.0810
     57  CE3       36.5960   12.4670   19.0790 C.ar   31  TRP31       0.0012
     58  CZ2       37.5840   10.5030   17.2720 C.ar   31  TRP31       0.0191
     59  CZ3       36.6230   12.6860   17.6770 C.ar   31  TRP31       0.0001
     60  CH2       37.1080   11.7030   16.8060 C.ar   31  TRP31       0.0015
     61  N         38.0620    4.8360   24.7210 N.3    34  LYS34      -0.1245
     62  CA        39.0680    3.8670   24.2800 C.3    34  LYS34       0.1561
     63  C         39.6400    3.1430   25.4970 C.2    34  LYS34       0.2260
     64  O         39.6620    3.6910   26.6020 O.2    34  LYS34      -0.2867
     65  CB        40.2260    4.5630   23.5490 C.3    34  LYS34       0.0271
     66  CG        39.8580    5.3650   22.2930 C.3    34  LYS34       0.0035
     67  CD        41.0860    6.1120   21.7090 C.3    34  LYS34       0.0206
     68  CE        41.4200    7.3600   22.5360 C.3    34  LYS34       0.1093
     69  NZ        42.8590    7.7090   22.5400 N.3    34  LYS34      -0.1314
     70  N         46.6980    3.3450   24.2480 N.3    38  THR38      -0.1218
     71  CA        46.3150    4.5530   23.5070 C.3    38  THR38       0.1862
     72  C         45.2830    5.4310   24.2370 C.2    38  THR38       0.2287
     73  O         45.0920    6.6020   23.8810 O.2    38  THR38      -0.2866
     74  CB        45.8220    4.2240   22.0800 C.3    38  THR38       0.1770
     75  OG1       44.5630    3.5430   22.1430 O.3    38  THR38      -0.2211
     76  CG2       46.8480    3.3400   21.3470 C.3    38  THR38       0.0375
     77  N         45.3880    9.6140   26.8060 N.3    41  ASN41      -0.1240
     78  CA        44.7970   10.9570   26.6820 C.3    41  ASN41       0.1653
     79  C         43.3240   11.0360   27.1230 C.2    41  ASN41       0.2266
     80  O         42.7110   12.0920   27.0010 O.2    41  ASN41      -0.2867
     81  CB        44.9140   11.4960   25.2510 C.3    41  ASN41       0.1155
     82  CG        44.0810   10.6870   24.2590 C.2    41  ASN41       0.2627
     83  OD1       44.0650    9.4470   24.3110 O.2    41  ASN41      -0.2716
     84  ND2       43.3760   11.3820   23.3660 N.am   41  ASN41      -0.0877
@<TRIPOS>BOND
     1    60    58   ar
     2    60    59   ar
     3    58    56   ar
     4    59    57   ar
     5    24    23   ar
     6    56    55   ar
     7    56    54   ar
     8    23    22    1
     9    23    25   ar
    10    57    54   ar
    11    27    26    1
    12    27    28    1
    13    22    21    1
    14    55    53   ar
    15    29    28    2
    16    54    52   ar
    17    26    19   am
    18    28    30   am
    19    19    20    2
    20    19    18    1
    21    53    52   ar
    22    21    18    1
    23    52    51    1
    24    46    44    1
    25    37    36    2
    26    30    31    1
    27    18    17    1
    28    76    74    1
    29    34    35    1
    30    34    31    1
    31    67    66    1
    32    67    68    1
    33    45    43    1
    34    35    36    1
    35    36    38   am
    36    74    75    1
    37    74    71    1
    38    31    32    1
    39    32    33    2
    40    51    48    1
    41    66    65    1
    42    44    43    1
    43    48    49    1
    44    48    47    1
    45    43    40    1
    46    68    69    1
    47    17    11   am
    48    49    50    2
    49     8     6   ar
    50     7     6   ar
    51    12    11    2
    52    84    82   am
    53     6     5    1
    54    71    72    1
    55    71    70    1
    56    65    62    1
    57    11    10    1
    58    73    72    2
    59    40    41    1
    60    40    39    1
    61    82    83    2
    62    82    81    1
    63    62    61    1
    64    62    63    1
    65    41    42    2
    66     5     2    1
    67     4     3    2
    68    10     9    1
    69    10    13    1
    70    15    13    1
    71    81    78    1
    72     3     9   am
    73     3     2    1
    74    63    64    2
    75    13    14    1
    76     2     1    1
    77    78    77    1
    78    78    79    1
    79    80    79    2
    80    14    16    1
