@<TRIPOS>MOLECULE
tmp/2zqoA01.pdb
 81 78 0 0 0
SMALL
GASTEIGER

@<TRIPOS>ATOM
      1  N         31.3680   21.8600   31.4330 N.3   100  ASP100     -0.1225
      2  CA        30.0810   21.9690   30.7420 C.3   100  ASP100      0.1805
      3  C         30.3470   21.7150   29.2640 C.2   100  ASP100      0.2598
      4  O         31.1740   22.4030   28.6550 O.2   100  ASP100     -0.2718
      5  CB        29.5360   23.3860   31.0510 C.3   100  ASP100      0.1424
      6  CG        28.2630   23.7280   30.3090 C.2   100  ASP100      0.3668
      7  OD1       27.3040   24.1370   30.9950 O.co2 100  ASP100     -0.2456
      8  OD2       28.2600   23.6450   29.0600 O.co2 100  ASP100     -0.2456
      9  N         29.6830   20.7050   28.6980 N.am  101  ILE101     -0.1966
     10  CA        29.7810   20.4510   27.2430 C.3   101  ILE101      0.1727
     11  C         28.9760   21.5300   26.5610 C.2   101  ILE101      0.2616
     12  O         27.7630   21.6000   26.7670 O.2   101  ILE101     -0.2715
     13  CB        29.1850   19.0820   26.8200 C.3   101  ILE101      0.0290
     14  CG1       29.8780   17.9280   27.5690 C.3   101  ILE101      0.0022
     15  CG2       29.3470   18.8860   25.3100 C.3   101  ILE101      0.0023
     16  CD1       29.2220   16.5370   27.3310 C.3   101  ILE101      0.0001
     17  N         29.6580   22.3360   25.7460 N.am  102  ILE102     -0.1963
     18  CA        29.0900   23.5740   25.1470 C.3   102  ILE102      0.1727
     19  C         27.8240   23.2630   24.3230 C.2   102  ILE102      0.2616
     20  O         27.8550   22.4030   23.4440 O.2   102  ILE102     -0.2715
     21  CB        30.1390   24.2830   24.2830 C.3   102  ILE102      0.0290
     22  CG1       31.2860   24.8190   25.1740 C.3   102  ILE102      0.0022
     23  CG2       29.5020   25.4250   23.4660 C.3   102  ILE102      0.0023
     24  CD1       32.5630   25.1480   24.4280 C.3   102  ILE102      0.0001
     25  N         26.7250   23.9190   24.6670 N.am  103  LYS103     -0.1963
     26  CA        25.4410   23.8170   23.9230 C.3   103  LYS103      0.1728
     27  C         24.8840   22.3980   23.9200 C.2   103  LYS103      0.2616
     28  O         24.0330   22.0480   23.1010 O.2   103  LYS103     -0.2715
     29  CB        25.6060   24.3760   22.4900 C.3   103  LYS103      0.0311
     30  CG        26.0110   25.8380   22.4470 C.3   103  LYS103      0.0038
     31  CD        24.7840   26.7220   22.3760 C.3   103  LYS103      0.0206
     32  CE        25.1270   28.1860   22.1190 C.3   103  LYS103      0.1093
     33  NZ        23.8550   28.9450   21.9520 N.3   103  LYS103     -0.1314
     34  N         25.3480   21.5830   24.8780 N.am  104  SER104     -0.1950
     35  CA        24.9880   20.1670   24.9740 C.3   104  SER104      0.1924
     36  C         25.2500   19.4020   23.6800 C.2   104  SER104      0.2314
     37  O         24.5160   18.4760   23.3500 O.2   104  SER104     -0.2863
     38  CB        23.5250   19.9890   25.4120 C.3   104  SER104      0.2116
     39  OG        23.3480   20.4480   26.7300 O.3   104  SER104     -0.2180
     40  N         33.2770   23.9820   28.2920 N.3   113  CYS113     -0.1235
     41  CA        33.5290   25.3030   28.9040 C.3   113  CYS113      0.1677
     42  C         33.3710   25.2360   30.4240 C.2   113  CYS113      0.2270
     43  O         33.0160   24.1960   30.9600 O.2   113  CYS113     -0.2867
     44  CB        32.5490   26.3050   28.3090 C.3   113  CYS113      0.0956
     45  SG        30.8270   25.9950   28.7850 S.3   113  CYS113     -0.0801
     46  N         31.0520   26.8680   33.2900 N.3   115  TRP115     -0.1241
     47  CA        29.7450   27.5100   33.3950 C.3   115  TRP115      0.1605
     48  C         29.2220   27.3510   34.8190 C.2   115  TRP115      0.2264
     49  O         29.5790   26.3900   35.5140 O.2   115  TRP115     -0.2867
     50  CB        28.7840   26.7750   32.4550 C.3   115  TRP115      0.0550
     51  CG        27.6000   27.5900   31.9830 C.ar  115  TRP115      0.0003
     52  CD1       26.3520   27.5810   32.5120 C.ar  115  TRP115      0.0946
     53  CD2       27.5820   28.5230   30.9020 C.ar  115  TRP115      0.0152
     54  NE1       25.5270   28.4390   31.8210 N.ar  115  TRP115     -0.2442
     55  CE2       26.2630   29.0440   30.8270 C.ar  115  TRP115      0.0810
     56  CE3       28.5470   28.9650   29.9740 C.ar  115  TRP115      0.0012
     57  CZ2       25.8760   29.9850   29.8590 C.ar  115  TRP115      0.0191
     58  CZ3       28.1840   29.9240   29.0330 C.ar  115  TRP115      0.0001
     59  CH2       26.8370   30.4200   28.9690 C.ar  115  TRP115      0.0015
     60  N         23.9300   24.3390   36.7320 N.3   118  HIS118     -0.1241
     61  CA        22.4670   24.4590   36.5610 C.3   118  HIS118      0.1621
     62  C         21.6910   23.1560   36.5070 C.2   118  HIS118      0.2264
     63  O         20.4680   23.1480   36.2500 O.2   118  HIS118     -0.2867
     64  CB        22.1110   25.3340   35.3500 C.3   118  HIS118      0.0745
     65  CG        22.6810   24.8450   34.0610 C.ar  118  HIS118      0.0817
     66  ND1       22.6470   23.5190   33.6850 N.ar  118  HIS118     -0.2268
     67  CD2       23.3140   25.5080   33.0610 C.ar  118  HIS118      0.1154
     68  CE1       23.2260   23.3850   32.5040 C.ar  118  HIS118      0.1986
     69  NE2       23.6520   24.5710   32.1090 N.ar  118  HIS118     -0.2212
     70  N         21.8030   20.6380   34.3800 N.3   120  GLY120     -0.1225
     71  CA        21.6650   20.0010   33.0610 C.3   120  GLY120      0.1811
     72  C         22.6290   18.8210   32.9200 C.2   120  GLY120      0.2280
     73  O         23.7090   18.8270   33.5270 O.2   120  GLY120     -0.2866
     74  N         24.5670   18.0760   30.6130 N.3   122  ASN122     -0.1240
     75  CA        25.7900   18.4790   29.9470 C.3   122  ASN122      0.1653
     76  C         26.9050   18.8970   30.9170 C.2   122  ASN122      0.2266
     77  O         28.0030   19.1260   30.4880 O.2   122  ASN122     -0.2867
     78  CB        25.5440   19.5820   28.8920 C.3   122  ASN122      0.1155
     79  CG        25.0450   20.9010   29.4910 C.2   122  ASN122      0.2627
     80  OD1       24.1800   20.9060   30.3480 O.2   122  ASN122     -0.2716
     81  ND2       25.5500   22.0340   28.9670 N.am  122  ASN122     -0.0877
@<TRIPOS>BOND
     1    33    32    1
     2    32    31    1
     3    31    30    1
     4    30    29    1
     5    29    26    1
     6    28    27    2
     7    37    36    2
     8    20    19    2
     9    23    21    1
    10    36    35    1
    11    27    26    1
    12    27    34   am
    13    26    25    1
    14    21    18    1
    15    21    22    1
    16    19    25   am
    17    19    18    1
    18    24    22    1
    19    34    35    1
    20    35    38    1
    21    18    17    1
    22    15    13    1
    23    38    39    1
    24    17    11   am
    25    11    12    2
    26    11    10    1
    27    13    10    1
    28    13    14    1
    29    10     9    1
    30    16    14    1
    31    40    41    1
    32    44    45    1
    33    44    41    1
    34     4     3    2
    35     9     3   am
    36    78    79    1
    37    78    75    1
    38    41    42    1
    39    81    79   am
    40    59    58   ar
    41    59    57   ar
    42    58    56   ar
    43     8     6   ar
    44     3     2    1
    45    79    80    2
    46    57    55   ar
    47    75    74    1
    48    75    76    1
    49    56    53   ar
    50     6     7   ar
    51     6     5    1
    52    42    43    2
    53    77    76    2
    54     2     5    1
    55     2     1    1
    56    55    53   ar
    57    55    54   ar
    58    53    51   ar
    59    54    52   ar
    60    51    50    1
    61    51    52   ar
    62    69    68   ar
    63    69    67   ar
    64    50    47    1
    65    68    66   ar
    66    72    71    1
    67    72    73    2
    68    71    70    1
    69    67    65   ar
    70    46    47    1
    71    47    48    1
    72    66    65   ar
    73    65    64    1
    74    48    49    2
    75    64    61    1
    76    63    62    2
    77    62    61    1
    78    61    60    1
