@<TRIPOS>MOLECULE
tmp/2zr2B00.pdb
 169 157 0 0 0
SMALL
GASTEIGER

@<TRIPOS>ATOM
      1  N         30.6110   29.2350   23.0020 N.3   252  THR252     -0.1218
      2  CA        31.8220   29.9950   22.7260 C.3   252  THR252      0.1862
      3  C         33.0310   29.4610   23.4980 C.2   252  THR252      0.2287
      4  O         32.8890   29.0160   24.6290 O.2   252  THR252     -0.2866
      5  CB        31.6170   31.4600   23.1250 C.3   252  THR252      0.1770
      6  OG1       32.8870   32.1180   23.1990 O.3   252  THR252     -0.2211
      7  CG2       30.9100   31.5540   24.4870 C.3   252  THR252      0.0375
      8  N         35.0350   30.9810   24.9720 N.3   254  GLU254     -0.1245
      9  CA        35.1460   31.7850   26.1750 C.3   254  GLU254      0.1567
     10  C         34.7690   31.0380   27.4700 C.2   254  GLU254      0.2260
     11  O         35.4330   31.1920   28.4940 O.2   254  GLU254     -0.2867
     12  CB        34.2680   33.0150   26.0630 C.3   254  GLU254      0.0388
     13  CG        34.1800   33.8190   27.3710 C.3   254  GLU254      0.1160
     14  CD        32.9430   34.6890   27.4260 C.2   254  GLU254      0.3649
     15  OE1       32.3300   34.9120   26.3500 O.co2 254  GLU254     -0.2457
     16  OE2       32.5930   35.1530   28.5360 O.co2 254  GLU254     -0.2457
     17  N         24.3400   27.7870   19.4790 N.3   283  ARG283     -0.1245
     18  CA        23.3830   28.7170   20.0660 C.3   283  ARG283      0.1563
     19  C         21.9550   28.3280   19.6930 C.2   283  ARG283      0.2260
     20  O         21.6690   27.9720   18.5390 O.2   283  ARG283     -0.2867
     21  CB        23.6550   30.1340   19.5540 C.3   283  ARG283      0.0307
     22  CG        25.1310   30.5310   19.5060 C.3   283  ARG283      0.0489
     23  CD        25.6420   31.0730   20.8230 C.3   283  ARG283      0.2205
     24  NE        25.6820   32.5340   20.8440 N.pl3 283  ARG283     -0.0865
     25  CZ        26.7910   33.2700   20.9660 C.cat 283  ARG283      0.5346
     26  NH1       27.9860   32.7000   21.0740 N.pl3 283  ARG283      0.1354
     27  NH2       26.7000   34.5930   21.0140 N.pl3 283  ARG283      0.1354
     28  N         19.4200   30.4430   19.9880 N.3   285  GLU285     -0.1245
     29  CA        18.8890   31.6350   19.3200 C.3   285  GLU285      0.1567
     30  C         17.3630   31.6170   19.4460 C.2   285  GLU285      0.2260
     31  O         16.6500   31.8320   18.4610 O.2   285  GLU285     -0.2867
     32  CB        19.2810   31.6590   17.8320 C.3   285  GLU285      0.0388
     33  CG        20.7660   31.8560   17.5310 C.3   285  GLU285      0.1160
     34  CD        21.3350   33.2160   17.9790 C.2   285  GLU285      0.3649
     35  OE1       20.6740   34.2590   17.7570 O.co2 285  GLU285     -0.2457
     36  OE2       22.4660   33.2430   18.5330 O.co2 285  GLU285     -0.2457
     37  N         24.6910   34.2890    9.0620 N.3   297  PHE297     -0.1227
     38  CA        24.9380   35.4490    9.9120 C.3   297  PHE297      0.1736
     39  C         24.4100   35.2210   11.3330 C.2   297  PHE297      0.2595
     40  O         24.9770   35.7350   12.3030 O.2   297  PHE297     -0.2718
     41  CB        24.2810   36.6940    9.3180 C.3   297  PHE297      0.0547
     42  CG        24.5020   37.9250   10.1360 C.ar  297  PHE297     -0.0202
     43  CD1       25.7160   38.6030   10.0720 C.ar  297  PHE297     -0.0042
     44  CD2       23.5210   38.3660   11.0300 C.ar  297  PHE297     -0.0042
     45  CE1       25.9550   39.7030   10.8920 C.ar  297  PHE297     -0.0003
     46  CE2       23.7420   39.4560   11.8510 C.ar  297  PHE297     -0.0003
     47  CZ        24.9640   40.1350   11.7890 C.ar  297  PHE297     -0.0000
     48  N         23.3110   34.4750   11.4450 N.am  298  ARG298     -0.1966
     49  CA        22.7260   34.1490   12.7380 C.3   298  ARG298      0.1729
     50  C         22.2660   32.7030   12.6260 C.2   298  ARG298      0.2616
     51  O         21.1430   32.4290   12.2250 O.2   298  ARG298     -0.2715
     52  CB        21.5430   35.0690   13.0760 C.3   298  ARG298      0.0348
     53  CG        21.0300   34.8730   14.5180 C.3   298  ARG298      0.0492
     54  CD        19.8490   35.7790   14.9030 C.3   298  ARG298      0.2205
     55  NE        20.2350   37.1890   14.9470 N.pl3 298  ARG298     -0.0865
     56  CZ        19.9070   38.0910   14.0230 C.cat 298  ARG298      0.5346
     57  NH1       19.1710   37.7400   12.9720 N.pl3 298  ARG298      0.1354
     58  NH2       20.3330   39.3420   14.1390 N.pl3 298  ARG298      0.1354
     59  N         23.1490   31.7860   13.0010 N.am  299  VAL299     -0.1977
     60  CA        22.8780   30.3600   12.8950 C.3   299  VAL299      0.1596
     61  C         23.0770   29.6050   14.1930 C.2   299  VAL299      0.2287
     62  O         23.5060   30.1750   15.1950 O.2   299  VAL299     -0.2864
     63  CB        23.7940   29.7260   11.8570 C.3   299  VAL299      0.0276
     64  CG1       23.4760   30.2700   10.4580 C.3   299  VAL299      0.0022
     65  CG2       25.2380   30.0300   12.2360 C.3   299  VAL299      0.0022
     66  N         28.6130   27.7800   14.4480 N.3   302  PHE302     -0.1241
     67  CA        29.6110   28.5010   13.6930 C.3   302  PHE302      0.1605
     68  C         30.9230   28.3170   14.4100 C.2   302  PHE302      0.2264
     69  O         30.9490   27.9070   15.5560 O.2   302  PHE302     -0.2867
     70  CB        29.2710   29.9820   13.6080 C.3   302  PHE302      0.0534
     71  CG        29.1040   30.6350   14.9380 C.ar  302  PHE302     -0.0203
     72  CD1       27.9070   30.5110   15.6420 C.ar  302  PHE302     -0.0042
     73  CD2       30.1390   31.3870   15.4900 C.ar  302  PHE302     -0.0042
     74  CE1       27.7420   31.1360   16.8850 C.ar  302  PHE302     -0.0003
     75  CE2       29.9830   32.0130   16.7270 C.ar  302  PHE302     -0.0003
     76  CZ        28.7750   31.8850   17.4280 C.ar  302  PHE302     -0.0000
     77  N         34.6140   29.8600   15.8330 N.3   304  LYS304     -0.1245
     78  CA        35.1300   31.1290   16.3160 C.3   304  LYS304      0.1561
     79  C         36.4170   31.0140   17.1140 C.2   304  LYS304      0.2260
     80  O         36.5530   30.1550   18.0000 O.2   304  LYS304     -0.2867
     81  CB        34.0710   31.8520   17.1610 C.3   304  LYS304      0.0271
     82  CG        34.5780   33.1380   17.8220 C.3   304  LYS304      0.0035
     83  CD        33.4490   33.9290   18.4460 C.3   304  LYS304      0.0206
     84  CE        32.6830   33.1230   19.4930 C.3   304  LYS304      0.1093
     85  NZ        33.5270   32.8070   20.6950 N.3   304  LYS304     -0.1314
     86  N         38.6100   32.7630   19.7830 N.3   306  GLU306     -0.1245
     87  CA        38.3500   33.6900   20.8760 C.3   306  GLU306      0.1567
     88  C         39.5850   34.0870   21.6940 C.2   306  GLU306      0.2260
     89  O         40.4910   33.2730   21.8940 O.2   306  GLU306     -0.2867
     90  CB        37.3070   33.0350   21.7960 C.3   306  GLU306      0.0388
     91  CG        36.9350   33.8190   23.0140 C.3   306  GLU306      0.1160
     92  CD        35.8710   34.8490   22.7300 C.2   306  GLU306      0.3649
     93  OE1       35.4810   34.9990   21.5450 O.co2 306  GLU306     -0.2457
     94  OE2       35.4260   35.5080   23.6970 O.co2 306  GLU306     -0.2457
     95  N         31.8680   47.3120   27.2120 N.3   355  LYS355     -0.1245
     96  CA        32.0090   46.4830   26.0250 C.3   355  LYS355      0.1561
     97  C         32.1260   47.2090   24.6890 C.2   355  LYS355      0.2260
     98  O         31.4180   48.1690   24.4430 O.2   355  LYS355     -0.2867
     99  CB        30.8290   45.5060   25.9760 C.3   355  LYS355      0.0271
    100  CG        30.7950   44.6070   24.7610 C.3   355  LYS355      0.0035
    101  CD        29.9580   43.3760   25.0440 C.3   355  LYS355      0.0206
    102  CE        28.5700   43.4830   24.4730 C.3   355  LYS355      0.1093
    103  NZ        27.7630   42.2980   24.8390 N.3   355  LYS355     -0.1314
    104  N         27.2730   43.6220   13.7430 N.3   370  GLU370     -0.1231
    105  CA        28.2620   43.1270   14.7020 C.3   370  GLU370      0.1699
    106  C         29.0060   41.9310   14.1200 C.2   370  GLU370      0.2592
    107  O         28.4050   40.9540   13.6500 O.2   370  GLU370     -0.2718
    108  CB        27.6040   42.7100   16.0120 C.3   370  GLU370      0.0402
    109  CG        28.5460   41.9700   16.9560 C.3   370  GLU370      0.1161
    110  CD        27.8630   41.5450   18.2370 C.2   370  GLU370      0.3649
    111  OE1       28.4740   40.7900   19.0210 O.co2 370  GLU370     -0.2457
    112  OE2       26.7120   41.9690   18.4660 O.co2 370  GLU370     -0.2457
    113  N         30.3260   42.0110   14.1760 N.am  371  VAL371     -0.1966
    114  CA        31.1700   40.9650   13.6390 C.3   371  VAL371      0.1727
    115  C         32.1410   40.4300   14.7420 C.2   371  VAL371      0.2616
    116  O         32.6110   39.2800   14.6940 O.2   371  VAL371     -0.2715
    117  CB        31.8620   41.5530   12.3760 C.3   371  VAL371      0.0290
    118  CG1       33.3120   41.8780   12.6390 C.3   371  VAL371      0.0023
    119  CG2       31.6630   40.6330   11.2030 C.3   371  VAL371      0.0023
    120  N         32.4160   41.2770   15.7370 N.am  372  VAL372     -0.1963
    121  CA        33.2550   40.9260   16.8810 C.3   372  VAL372      0.1727
    122  C         32.8020   41.7620   18.0850 C.2   372  VAL372      0.2616
    123  O         32.2770   42.8530   17.9170 O.2   372  VAL372     -0.2715
    124  CB        34.8200   41.1310   16.6160 C.3   372  VAL372      0.0290
    125  CG1       35.0710   41.9500   15.3960 C.3   372  VAL372      0.0023
    126  CG2       35.4780   41.8050   17.8130 C.3   372  VAL372      0.0023
    127  N         32.9780   41.2200   19.2880 N.am  373  SER373     -0.1950
    128  CA        32.6160   41.8980   20.5340 C.3   373  SER373      0.1924
    129  C         33.6820   41.6140   21.6170 C.2   373  SER373      0.2314
    130  O         34.1960   40.4950   21.7250 O.2   373  SER373     -0.2863
    131  CB        31.2500   41.4120   21.0160 C.3   373  SER373      0.2116
    132  OG        30.9430   41.9500   22.2940 O.3   373  SER373     -0.2180
    133  N         37.2510   38.8700   27.6140 N.3   404  ASN404     -0.1240
    134  CA        37.1220   38.0000   26.4670 C.3   404  ASN404      0.1653
    135  C         36.8600   38.9250   25.2670 C.2   404  ASN404      0.2266
    136  O         36.4010   40.0550   25.4330 O.2   404  ASN404     -0.2867
    137  CB        35.9500   37.0350   26.6960 C.3   404  ASN404      0.1155
    138  CG        34.6130   37.7070   26.5090 C.2   404  ASN404      0.2627
    139  OD1       34.1680   37.8750   25.3900 O.2   404  ASN404     -0.2716
    140  ND2       33.9740   38.1090   27.5990 N.am  404  ASN404     -0.0877
    141  N         36.2470   38.5720   20.6450 N.3   406  THR406     -0.1218
    142  CA        36.3210   37.8040   19.4250 C.3   406  THR406      0.1862
    143  C         37.6390   38.1230   18.7220 C.2   406  THR406      0.2287
    144  O         38.2020   39.2070   18.9000 O.2   406  THR406     -0.2866
    145  CB        35.1730   38.1920   18.4820 C.3   406  THR406      0.1770
    146  OG1       33.9500   38.2140   19.2170 O.3   406  THR406     -0.2211
    147  CG2       35.0640   37.1970   17.3020 C.3   406  THR406      0.0375
    148  N         35.0270   35.3790   14.0810 N.3   409  ALA409     -0.1245
    149  CA        33.9700   34.3830   14.1230 C.3   409  ALA409      0.1562
    150  C         33.8500   34.2080   12.6180 C.2   409  ALA409      0.2260
    151  O         33.4650   35.1500   11.9350 O.2   409  ALA409     -0.2867
    152  CB        32.6930   34.9780   14.7130 C.3   409  ALA409      0.0290
    153  N         31.7780   32.7330   10.5090 N.3   411  SER411     -0.1202
    154  CA        30.4770   33.0080    9.9070 C.3   411  SER411      0.2020
    155  C         30.3530   34.4640    9.4200 C.2   411  SER411      0.2618
    156  O         30.2650   34.7340    8.2230 O.2   411  SER411     -0.2717
    157  CB        29.3880   32.7320   10.9410 C.3   411  SER411      0.2103
    158  OG        29.7820   33.3000   12.1930 O.3   411  SER411     -0.2182
    159  N         30.3440   35.4020   10.3580 N.am  412  ARG412     -0.1979
    160  CA        30.1930   36.8020   10.0220 C.3   412  ARG412      0.1597
    161  C         31.3700   37.3950    9.2690 C.2   412  ARG412      0.2287
    162  O         31.2210   38.3690    8.5240 O.2   412  ARG412     -0.2864
    163  CB        29.8770   37.5910   11.2860 C.3   412  ARG412      0.0334
    164  CG        28.5030   37.2130   11.7920 C.3   412  ARG412      0.0492
    165  CD        27.9580   38.1130   12.8690 C.3   412  ARG412      0.2205
    166  NE        26.6690   37.6020   13.3090 N.pl3 412  ARG412     -0.0865
    167  CZ        25.9690   38.0880   14.3250 C.cat 412  ARG412      0.5346
    168  NH1       24.8000   37.5380   14.6350 N.pl3 412  ARG412      0.1354
    169  NH2       26.4290   39.1200   15.0300 N.pl3 412  ARG412      0.1354
@<TRIPOS>BOND
     1   156   155    2
     2   162   161    2
     3    37    38    1
     4   161   160    1
     5    41    38    1
     6    41    42    1
     7   155   154    1
     8   155   159   am
     9   154   153    1
    10   154   157    1
    11    38    39    1
    12   160   159    1
    13   160   163    1
    14    43    42   ar
    15    43    45   ar
    16    42    44   ar
    17    64    63    1
    18    45    47   ar
    19   157   158    1
    20    44    46   ar
    21   119   117    1
    22   163   164    1
    23    39    48   am
    24    39    40    2
    25    48    49    1
    26    47    46   ar
    27   164   165    1
    28    63    65    1
    29    63    60    1
    30   151   150    2
    31    51    50    2
    32   117   118    1
    33   117   114    1
    34   150   149    1
    35    50    49    1
    36    50    59   am
    37    49    52    1
    38   165   166    1
    39    60    59    1
    40    60    61    1
    41    57    56    1
    42    52    53    1
    43   166   167    2
    44    70    67    1
    45    70    71    1
    46   114   113    1
    47   114   115    1
    48   107   106    2
    49    67    68    1
    50    67    66    1
    51   104   105    1
    52    56    58    1
    53    56    55    2
    54   148   149    1
    55   106   113   am
    56   106   105    1
    57   149   152    1
    58    61    62    2
    59   167   168    1
    60   167   169    1
    61    68    69    2
    62    53    54    1
    63   116   115    2
    64   105   108    1
    65   115   120   am
    66    54    55    1
    67    71    73   ar
    68    71    72   ar
    69   125   124    1
    70    73    75   ar
    71    72    74   ar
    72   120   121    1
    73    77    78    1
    74   108   109    1
    75    78    79    1
    76    78    81    1
    77   124   121    1
    78   124   126    1
    79    75    76   ar
    80   121   122    1
    81    74    76   ar
    82   109   110    1
    83    79    80    2
    84    81    82    1
    85   147   145    1
    86    33    32    1
    87    33    34    1
    88    35    34   ar
    89    82    83    1
    90    32    29    1
    91   123   122    2
    92    34    36   ar
    93   122   127   am
    94   110   112   ar
    95   110   111   ar
    96    83    84    1
    97    31    30    2
    98   145   146    1
    99   145   142    1
   100    20    19    2
   101   143   144    2
   102   143   142    1
   103   127   128    1
   104    29    30    1
   105    29    28    1
   106   142   141    1
   107    17    18    1
   108    84    85    1
   109    22    21    1
   110    22    23    1
   111    21    18    1
   112    19    18    1
   113    86    87    1
   114   128   131    1
   115   128   129    1
   116    23    24    1
   117    24    25    2
   118    87    88    1
   119    87    90    1
   120    25    27    1
   121    25    26    1
   122   131   132    1
   123    93    92   ar
   124   129   130    2
   125    88    89    2
   126    90    91    1
   127     2     1    1
   128     2     5    1
   129     2     3    1
   130    92    91    1
   131    92    94   ar
   132     5     6    1
   133     5     7    1
   134     3     4    2
   135    98    97    2
   136   102   103    1
   137   102   101    1
   138    97    96    1
   139   100   101    1
   140   100    99    1
   141     8     9    1
   142   135   136    2
   143   135   134    1
   144   139   138    2
   145    99    96    1
   146    96    95    1
   147    12     9    1
   148    12    13    1
   149     9    10    1
   150    15    14   ar
   151   134   137    1
   152   134   133    1
   153   138   137    1
   154   138   140   am
   155    13    14    1
   156    14    16   ar
   157    10    11    2
