@<TRIPOS>MOLECULE
tmp/2zrcA00.pdb
 138 133 0 0 0
SMALL
GASTEIGER

@<TRIPOS>ATOM
      1  N        -42.0210    9.4710   22.9280 N.3    13  ALA13      -0.1245
      2  CA       -42.0530   10.8460   23.4150 C.3    13  ALA13       0.1562
      3  C        -40.8680   11.1130   24.3250 C.2    13  ALA13       0.2260
      4  O        -40.1530   12.0950   24.1460 O.2    13  ALA13      -0.2867
      5  CB       -43.3420   11.1040   24.1590 C.3    13  ALA13       0.0290
      6  N        -37.6110   11.3700   22.3330 N.3    16  ASP16      -0.1225
      7  CA       -37.5110   12.6210   21.6050 C.3    16  ASP16       0.1805
      8  C        -37.1760   13.7680   22.5530 C.2    16  ASP16       0.2598
      9  O        -36.4150   14.6710   22.2030 O.2    16  ASP16      -0.2718
     10  CB       -38.8370   12.9010   20.8880 C.3    16  ASP16       0.1424
     11  CG       -38.6960   12.8790   19.3810 C.2    16  ASP16       0.3668
     12  OD1      -37.6320   12.4520   18.8970 O.co2  16  ASP16      -0.2456
     13  OD2      -39.6480   13.2810   18.6780 O.co2  16  ASP16      -0.2456
     14  N        -37.7300   13.7280   23.7610 N.am   17  LYS17      -0.1966
     15  CA       -37.4720   14.7880   24.7230 C.3    17  LYS17       0.1728
     16  C        -36.0810   14.6380   25.3300 C.2    17  LYS17       0.2616
     17  O        -35.4420   15.6160   25.7000 O.2    17  LYS17      -0.2715
     18  CB       -38.5370   14.7700   25.8190 C.3    17  LYS17       0.0311
     19  CG       -38.6020   16.0540   26.6280 C.3    17  LYS17       0.0038
     20  CD       -39.6910   15.9920   27.6890 C.3    17  LYS17       0.0206
     21  CE       -39.4180   14.8920   28.7080 C.3    17  LYS17       0.1093
     22  NZ       -40.4540   14.8410   29.7750 N.3    17  LYS17      -0.1314
     23  N        -35.6070   13.4080   25.4300 N.am   18  ASN18      -0.1958
     24  CA       -34.2880   13.1810   25.9830 C.3    18  ASN18       0.1819
     25  C        -33.1910   13.4980   24.9780 C.2    18  ASN18       0.2621
     26  O        -32.0780   13.8710   25.3590 O.2    18  ASN18      -0.2715
     27  CB       -34.1450   11.7290   26.4330 C.3    18  ASN18       0.1195
     28  CG       -34.6330   11.5080   27.8410 C.2    18  ASN18       0.2630
     29  OD1      -34.0730   12.0490   28.7940 O.2    18  ASN18      -0.2716
     30  ND2      -35.6810   10.7100   27.9850 N.am   18  ASN18      -0.0877
     31  N        -33.4970   13.3650   23.6930 N.am   19  PHE19      -0.1960
     32  CA       -32.4690   13.6000   22.6940 C.3    19  PHE19       0.1771
     33  C        -32.8380   14.5270   21.5390 C.2    19  PHE19       0.2620
     34  O        -32.0270   14.7500   20.6410 O.2    19  PHE19      -0.2715
     35  CB       -31.9990   12.2480   22.1500 C.3    19  PHE19       0.0574
     36  CG       -31.6950   11.2350   23.2230 C.ar   19  PHE19      -0.0200
     37  CD1      -30.6610   11.4530   24.1390 C.ar   19  PHE19      -0.0042
     38  CD2      -32.4560   10.0780   23.3370 C.ar   19  PHE19      -0.0042
     39  CE1      -30.3940   10.5330   25.1450 C.ar   19  PHE19      -0.0003
     40  CE2      -32.1930    9.1530   24.3420 C.ar   19  PHE19      -0.0003
     41  CZ       -31.1640    9.3830   25.2470 C.ar   19  PHE19      -0.0000
     42  N        -34.0470   15.0710   21.5490 N.am   20  GLY20      -0.1940
     43  CA       -34.4340   15.9620   20.4710 C.3    20  GLY20       0.2014
     44  C        -35.5230   15.3500   19.6150 C.2    20  GLY20       0.2638
     45  O        -35.8150   14.1650   19.7420 O.2    20  GLY20      -0.2714
     46  N        -36.1390   16.1610   18.7560 N.am   21  LYS21      -0.1977
     47  CA       -37.1940   15.6860   17.8650 C.3    21  LYS21       0.1596
     48  C        -36.4390   15.0100   16.7240 C.2    21  LYS21       0.2287
     49  O        -35.4380   15.5380   16.2320 O.2    21  LYS21      -0.2864
     50  CB       -38.0150   16.8410   17.2820 C.3    21  LYS21       0.0298
     51  CG       -38.7360   17.7430   18.2740 C.3    21  LYS21       0.0038
     52  CD       -39.6770   18.6830   17.5110 C.3    21  LYS21       0.0206
     53  CE       -40.1500   19.8580   18.3510 C.3    21  LYS21       0.1093
     54  NZ       -39.0270   20.7920   18.6540 N.3    21  LYS21      -0.1314
     55  N        -35.2630   11.9200   17.0830 N.3    23  SER23      -0.1217
     56  CA       -34.4270   10.8950   17.6710 C.3    23  SER23       0.1889
     57  C        -34.8940    9.5460   17.1820 C.2    23  SER23       0.2288
     58  O        -34.0950    8.6270   17.0060 O.2    23  SER23      -0.2866
     59  CB       -34.5070   10.9640   19.1830 C.3    23  SER23       0.2089
     60  OG       -34.0500   12.2320   19.6020 O.3    23  SER23      -0.2183
     61  N        -39.7350   23.1110    9.4730 N.3    35  ILE35      -0.1245
     62  CA       -38.5670   23.8470    9.9150 C.3    35  ILE35       0.1561
     63  C        -38.2180   24.8860    8.8670 C.2    35  ILE35       0.2260
     64  O        -38.7950   24.9240    7.7850 O.2    35  ILE35      -0.2867
     65  CB       -37.3860   22.8960   10.1200 C.3    35  ILE35       0.0252
     66  CG1      -36.3070   23.5360   10.9960 C.3    35  ILE35       0.0019
     67  CG2      -36.9120   22.2940    8.7950 C.3    35  ILE35       0.0019
     68  CD1      -35.3430   22.5510   11.5640 C.3    35  ILE35       0.0001
     69  N        -28.1680   23.6330   10.8360 N.3    58  ARG58      -0.1245
     70  CA       -27.7440   22.2410   10.7730 C.3    58  ARG58       0.1563
     71  C        -26.4700   21.9610   10.0070 C.2    58  ARG58       0.2260
     72  O        -26.0600   22.7230    9.1340 O.2    58  ARG58      -0.2867
     73  CB       -28.8490   21.4120   10.1290 C.3    58  ARG58       0.0307
     74  CG       -29.7390   20.6990   11.0870 C.3    58  ARG58       0.0489
     75  CD       -29.7380   21.3450   12.4430 C.3    58  ARG58       0.2205
     76  NE       -30.8300   20.8270   13.2510 N.pl3  58  ARG58      -0.0865
     77  CZ       -31.2730   21.4050   14.3580 C.cat  58  ARG58       0.5346
     78  NH1      -30.7110   22.5250   14.7950 N.pl3  58  ARG58       0.1354
     79  NH2      -32.2940   20.8790   15.0140 N.pl3  58  ARG58       0.1354
     80  N        -21.8940   11.4150   12.4160 N.3   207  PHE207     -0.1227
     81  CA       -22.6270   11.5700   13.6760 C.3   207  PHE207      0.1736
     82  C        -23.0500   12.9940   14.0380 C.2   207  PHE207      0.2595
     83  O        -23.9430   13.1990   14.8590 O.2   207  PHE207     -0.2718
     84  CB       -21.7910   11.0370   14.8230 C.3   207  PHE207      0.0547
     85  CG       -21.7060    9.5600   14.8690 C.ar  207  PHE207     -0.0202
     86  CD1      -22.8210    8.8030   15.2040 C.ar  207  PHE207     -0.0042
     87  CD2      -20.5040    8.9140   14.5990 C.ar  207  PHE207     -0.0042
     88  CE1      -22.7430    7.4100   15.2730 C.ar  207  PHE207     -0.0003
     89  CE2      -20.4090    7.5260   14.6640 C.ar  207  PHE207     -0.0003
     90  CZ       -21.5340    6.7680   15.0030 C.ar  207  PHE207     -0.0000
     91  N        -22.3950   13.9800   13.4490 N.am  208  TYR208     -0.1962
     92  CA       -22.7200   15.3500   13.7620 C.3   208  TYR208      0.1771
     93  C        -23.7350   15.9690   12.8150 C.2   208  TYR208      0.2619
     94  O        -24.3590   16.9850   13.1360 O.2   208  TYR208     -0.2715
     95  CB       -21.4430   16.1750   13.7760 C.3   208  TYR208      0.0574
     96  CG       -20.7440   16.1950   15.1140 C.ar  208  TYR208     -0.0198
     97  CD1      -21.2860   16.8970   16.1880 C.ar  208  TYR208     -0.0009
     98  CD2      -19.5290   15.5360   15.3010 C.ar  208  TYR208     -0.0009
     99  CE1      -20.6420   16.9430   17.4110 C.ar  208  TYR208      0.0417
    100  CE2      -18.8730   15.5770   16.5220 C.ar  208  TYR208      0.0417
    101  CZ       -19.4340   16.2850   17.5720 C.ar  208  TYR208      0.1957
    102  OH       -18.7980   16.3370   18.7920 O.3   208  TYR208     -0.2866
    103  N        -23.9180   15.3570   11.6530 N.am  209  ALA209     -0.1963
    104  CA       -24.8620   15.8910   10.6810 C.3   209  ALA209      0.1728
    105  C        -26.3120   15.4910   10.9490 C.2   209  ALA209      0.2616
    106  O        -26.6070   14.3630   11.3590 O.2   209  ALA209     -0.2715
    107  CB       -24.4580   15.4580    9.2900 C.3   209  ALA209      0.0334
    108  N        -27.2210   16.4290   10.7120 N.am  210  SER210     -0.1950
    109  CA       -28.6320   16.1620   10.9090 C.3   210  SER210      0.1924
    110  C        -29.1760   15.6050    9.6100 C.2   210  SER210      0.2314
    111  O        -30.2030   14.9320    9.5810 O.2   210  SER210     -0.2863
    112  CB       -29.3560   17.4470   11.2780 C.3   210  SER210      0.2116
    113  OG       -28.7620   18.0300   12.4220 O.3   210  SER210     -0.2180
    114  N        -29.2060    9.9880    5.8620 N.3   238  LYS238     -0.1245
    115  CA       -29.4740   10.3710    7.2260 C.3   238  LYS238      0.1561
    116  C        -30.3440   11.5990    7.2550 C.2   238  LYS238      0.2260
    117  O        -30.0780   12.5690    6.5480 O.2   238  LYS238     -0.2867
    118  CB       -28.1970   10.6560    7.9960 C.3   238  LYS238      0.0271
    119  CG       -28.4770   10.8140    9.4780 C.3   238  LYS238      0.0035
    120  CD       -27.3540   11.5100   10.2190 C.3   238  LYS238      0.0206
    121  CE       -27.6690   11.5490   11.7070 C.3   238  LYS238      0.1093
    122  NZ       -26.5580   12.1070   12.5320 N.3   238  LYS238     -0.1314
    123  N        -32.4380   13.7020   10.3990 N.3   240  LYS240     -0.1231
    124  CA       -32.8750   13.8200   11.7710 C.3   240  LYS240      0.1693
    125  C        -34.0140   14.8060   11.9680 C.2   240  LYS240      0.2591
    126  O        -34.2910   15.2080   13.0950 O.2   240  LYS240     -0.2718
    127  CB       -31.6980   14.2170   12.6580 C.3   240  LYS240      0.0285
    128  CG       -30.5490   13.2320   12.6570 C.3   240  LYS240      0.0035
    129  CD       -30.9910   11.8780   13.1860 C.3   240  LYS240      0.0206
    130  CE       -31.5490   11.9700   14.6070 C.3   240  LYS240      0.1093
    131  NZ       -30.4900   11.9960   15.6420 N.3   240  LYS240     -0.1314
    132  N        -34.6730   15.2120   10.8870 N.am  241  VAL241     -0.1980
    133  CA       -35.7970   16.1420   11.0040 C.3   241  VAL241      0.1595
    134  C        -36.9190   15.6750   10.1150 C.2   241  VAL241      0.2287
    135  O        -37.8980   16.3760    9.9100 O.2   241  VAL241     -0.2864
    136  CB       -35.4140   17.5570   10.5940 C.3   241  VAL241      0.0276
    137  CG1      -34.4530   18.1220   11.6110 C.3   241  VAL241      0.0022
    138  CG2      -34.8030   17.5490    9.1930 C.3   241  VAL241      0.0022
@<TRIPOS>BOND
     1   114   115    1
     2   117   116    2
     3   115   116    1
     4   115   118    1
     5    64    63    2
     6   118   119    1
     7    67    65    1
     8    63    62    1
     9    72    71    2
    10   138   136    1
    11   107   104    1
    12    61    62    1
    13   119   120    1
    14   111   110    2
    15   110   109    1
    16   135   134    2
    17    62    65    1
    18    71    70    1
    19   134   133    1
    20    65    66    1
    21    73    70    1
    22    73    74    1
    23   120   121    1
    24   123   124    1
    25   136   133    1
    26   136   137    1
    27   104   105    1
    28   104   103    1
    29   108   109    1
    30   108   105   am
    31    70    69    1
    32   132   133    1
    33   132   125   am
    34   109   112    1
    35   105   106    2
    36    66    68    1
    37    74    75    1
    38   112   113    1
    39   103    93   am
    40   121   122    1
    41   124   125    1
    42   124   127    1
    43   125   126    2
    44    80    81    1
    45    75    76    1
    46   128   127    1
    47   128   129    1
    48    93    94    2
    49    93    92    1
    50   129   130    1
    51    76    77    2
    52    91    92    1
    53    91    82   am
    54    81    82    1
    55    81    84    1
    56    92    95    1
    57    95    96    1
    58    82    83    2
    59    77    78    1
    60    77    79    1
    61    87    89   ar
    62    87    85   ar
    63   130   131    1
    64    89    90   ar
    65    84    85    1
    66    85    86   ar
    67    90    88   ar
    68    96    98   ar
    69    96    97   ar
    70    86    88   ar
    71    98   100   ar
    72    97    99   ar
    73    49    48    2
    74   100   101   ar
    75    48    47    1
    76    58    57    2
    77    55    56    1
    78    57    56    1
    79    50    47    1
    80    50    51    1
    81    99   101   ar
    82    52    51    1
    83    52    53    1
    84   101   102    1
    85    56    59    1
    86    47    46    1
    87    53    54    1
    88    13    11   ar
    89    46    44   am
    90    12    11   ar
    91    59    60    1
    92    11    10    1
    93    44    45    2
    94    44    43    1
    95    43    42    1
    96    34    33    2
    97    10     7    1
    98    33    42   am
    99    33    32    1
   100     7     6    1
   101     7     8    1
   102    35    32    1
   103    35    36    1
   104     9     8    2
   105     8    14   am
   106    32    31    1
   107     1     2    1
   108    36    38   ar
   109    36    37   ar
   110    38    40   ar
   111     2     5    1
   112     2     3    1
   113    31    25   am
   114    14    15    1
   115    37    39   ar
   116     4     3    2
   117    40    41   ar
   118    15    16    1
   119    15    18    1
   120    25    26    2
   121    25    24    1
   122    39    41   ar
   123    16    23   am
   124    16    17    2
   125    23    24    1
   126    18    19    1
   127    24    27    1
   128    27    28    1
   129    19    20    1
   130    20    21    1
   131    28    30   am
   132    28    29    2
   133    21    22    1
