@<TRIPOS>MOLECULE
tmp/2zrdA00.pdb
 136 129 0 0 0
SMALL
GASTEIGER

@<TRIPOS>ATOM
      1  N        -16.5530   12.3580   -7.5260 N.3    66  GLU66      -0.1231
      2  CA       -16.3430   13.5680   -8.2990 C.3    66  GLU66       0.1699
      3  C        -17.3360   13.6410   -9.4650 C.2    66  GLU66       0.2593
      4  O        -17.6610   12.6220  -10.0860 O.2    66  GLU66      -0.2718
      5  CB       -14.9000   13.5950   -8.8140 C.3    66  GLU66       0.0402
      6  CG       -13.8890   13.5980   -7.6670 C.3    66  GLU66       0.1161
      7  CD       -13.5890   15.0370   -7.2990 C.2    66  GLU66       0.3649
      8  OE1      -14.1270   16.0010   -7.8960 O.co2  66  GLU66      -0.2457
      9  OE2      -12.8260   15.2360   -6.3480 O.co2  66  GLU66      -0.2457
     10  N        -17.8370   14.8430   -9.7360 N.am   67  SER67      -0.1938
     11  CA       -18.7670   15.0610  -10.8410 C.3    67  SER67       0.2055
     12  C        -20.1550   14.4430  -10.6760 C.2    67  SER67       0.2644
     13  O        -20.8500   14.2050  -11.6630 O.2    67  SER67      -0.2714
     14  CB       -18.1580   14.5280  -12.1380 C.3    67  SER67       0.2130
     15  OG       -16.8540   15.0290  -12.3340 O.3    67  SER67      -0.2179
     16  N        -20.5780   14.1890   -9.4470 N.am   68  SER68      -0.1935
     17  CA       -21.8860   13.5840   -9.2580 C.3    68  SER68       0.2055
     18  C        -23.0170   14.5970   -9.0360 C.2    68  SER68       0.2644
     19  O        -24.1770   14.2230   -8.8970 O.2    68  SER68      -0.2714
     20  CB       -21.8250   12.5600   -8.1160 C.3    68  SER68       0.2130
     21  OG       -21.3680   13.1420   -6.9180 O.3    68  SER68      -0.2179
     22  N        -22.6800   15.8800   -9.0230 N.am   69  GLY69      -0.1939
     23  CA       -23.6930   16.9010   -8.8390 C.3    69  GLY69       0.2014
     24  C        -23.7260   17.5180   -7.4520 C.2    69  GLY69       0.2639
     25  O        -24.5980   18.3340   -7.1630 O.2    69  GLY69      -0.2714
     26  N        -22.7840   17.1470   -6.5900 N.am   70  LYS70      -0.1963
     27  CA       -22.7570   17.6850   -5.2410 C.3    70  LYS70       0.1728
     28  C        -22.6210   19.1950   -5.1960 C.2    70  LYS70       0.2617
     29  O        -23.5500   19.8910   -4.8020 O.2    70  LYS70      -0.2715
     30  CB       -21.6270   17.0580   -4.4530 C.3    70  LYS70       0.0311
     31  CG       -21.6790   15.5570   -4.4600 C.3    70  LYS70       0.0038
     32  CD       -20.5960   14.9550   -3.5760 C.3    70  LYS70       0.0206
     33  CE       -19.2140   15.4270   -3.9800 C.3    70  LYS70       0.1093
     34  NZ       -18.9740   15.2750   -5.4410 N.3    70  LYS70      -0.1314
     35  N        -21.4610   19.7040   -5.5920 N.am   71  THR71      -0.1937
     36  CA       -21.2090   21.1400   -5.5800 C.3    71  THR71       0.2028
     37  C        -22.4020   21.9340   -6.0940 C.2    71  THR71       0.2642
     38  O        -22.8320   22.8950   -5.4550 O.2    71  THR71      -0.2714
     39  CB       -19.9630   21.4840   -6.4190 C.3    71  THR71       0.1808
     40  OG1      -18.7840   21.1870   -5.6620 O.3    71  THR71      -0.2208
     41  CG2      -19.9580   22.9460   -6.8050 C.3    71  THR71       0.0379
     42  N        -22.9360   21.5200   -7.2440 N.am   72  THR72      -0.1950
     43  CA       -24.0890   22.1780   -7.8660 C.3    72  THR72       0.1897
     44  C        -25.2400   22.3780   -6.8910 C.2    72  THR72       0.2313
     45  O        -25.8180   23.4570   -6.8000 O.2    72  THR72      -0.2863
     46  CB       -24.6010   21.3660   -9.0540 C.3    72  THR72       0.1794
     47  OG1      -23.6570   21.4580  -10.1270 O.3    72  THR72      -0.2208
     48  CG2      -25.9530   21.8780   -9.5080 C.3    72  THR72       0.0378
     49  N        -16.0430   27.4460   -9.7690 N.3    98  ASP98      -0.1239
     50  CA       -16.0990   28.2680  -10.9650 C.3    98  ASP98       0.1674
     51  C        -17.2210   29.2730  -10.7300 C.2    98  ASP98       0.2266
     52  O        -18.3880   28.9840  -11.0010 O.2    98  ASP98      -0.2867
     53  CB       -16.4090   27.4250  -12.1970 C.3    98  ASP98       0.1410
     54  CG       -16.7200   28.2740  -13.4050 C.2    98  ASP98       0.3668
     55  OD1      -16.7450   29.5150  -13.2350 O.co2  98  ASP98      -0.2456
     56  OD2      -16.9420   27.7110  -14.5090 O.co2  98  ASP98      -0.2456
     57  N        -19.8760   29.7700  -13.4210 N.3   101  TYR101     -0.1241
     58  CA       -20.9250   28.7680  -13.4190 C.3   101  TYR101      0.1605
     59  C        -21.9010   29.0670  -12.2820 C.2   101  TYR101      0.2264
     60  O        -23.1030   28.8810  -12.4180 O.2   101  TYR101     -0.2867
     61  CB       -20.3040   27.4020  -13.2100 C.3   101  TYR101      0.0534
     62  CG       -21.2930   26.3220  -12.9070 C.ar  101  TYR101     -0.0201
     63  CD1      -22.2040   25.9030  -13.8580 C.ar  101  TYR101     -0.0009
     64  CD2      -21.2970   25.7000  -11.6660 C.ar  101  TYR101     -0.0009
     65  CE1      -23.0870   24.8890  -13.5850 C.ar  101  TYR101      0.0417
     66  CE2      -22.1720   24.6850  -11.3800 C.ar  101  TYR101      0.0417
     67  CZ       -23.0660   24.2810  -12.3400 C.ar  101  TYR101      0.1957
     68  OH       -23.9270   23.2470  -12.0520 O.3   101  TYR101     -0.2866
     69  N        -18.8760   19.3980    2.0040 N.3   190  ILE190     -0.1245
     70  CA       -18.8510   18.6690    0.7450 C.3   190  ILE190      0.1561
     71  C        -17.7760   17.6250    0.8350 C.2   190  ILE190      0.2260
     72  O        -16.5880   17.9240    0.7460 O.2   190  ILE190     -0.2867
     73  CB       -18.5580   19.5680   -0.4630 C.3   190  ILE190      0.0252
     74  CG1      -19.7530   20.4880   -0.7260 C.3   190  ILE190      0.0019
     75  CG2      -18.2390   18.6980   -1.6880 C.3   190  ILE190      0.0019
     76  CD1      -19.5860   21.3480   -1.9570 C.3   190  ILE190      0.0001
     77  N        -16.1480   14.7270   -0.8900 N.3   192  ASN192     -0.1240
     78  CA       -15.9540   14.0500   -2.1610 C.3   192  ASN192      0.1653
     79  C        -15.4320   12.6800   -1.7570 C.2   192  ASN192      0.2266
     80  O        -14.2530   12.5370   -1.5890 O.2   192  ASN192     -0.2867
     81  CB       -14.9080   14.7860   -2.9880 C.3   192  ASN192      0.1155
     82  CG       -15.5270   15.7190   -4.0010 C.2   192  ASN192      0.2627
     83  OD1      -16.6060   15.4470   -4.5300 O.2   192  ASN192     -0.2716
     84  ND2      -14.8430   16.8120   -4.2990 N.am  192  ASN192     -0.0877
     85  N        -23.9090    9.5700   -9.5980 N.3   217  ARG217     -0.1245
     86  CA       -24.2520    9.7510  -11.0080 C.3   217  ARG217      0.1563
     87  C        -24.8170    8.4510  -11.5650 C.2   217  ARG217      0.2260
     88  O        -24.2280    7.3920  -11.3600 O.2   217  ARG217     -0.2867
     89  CB       -23.0310   10.1220  -11.8240 C.3   217  ARG217      0.0307
     90  CG       -23.3460   10.1300  -13.3000 C.3   217  ARG217      0.0489
     91  CD       -23.1910   11.5100  -13.8580 C.3   217  ARG217      0.2205
     92  NE       -21.8370   11.7310  -14.3340 N.pl3 217  ARG217     -0.0865
     93  CZ       -21.3050   12.9310  -14.4990 C.cat 217  ARG217      0.5346
     94  NH1      -22.0100   14.0200  -14.2110 N.pl3 217  ARG217      0.1354
     95  NH2      -20.0790   13.0440  -14.9810 N.pl3 217  ARG217      0.1354
     96  N        -26.2280   15.2500  -17.3440 N.3   230  ASN230     -0.1240
     97  CA       -26.2060   13.9820  -16.6240 C.3   230  ASN230      0.1653
     98  C        -27.2800   13.9270  -15.5460 C.2   230  ASN230      0.2266
     99  O        -27.5840   14.9470  -14.9230 O.2   230  ASN230     -0.2867
    100  CB       -24.8380   13.7900  -15.9790 C.3   230  ASN230      0.1155
    101  CG       -23.7120   14.3240  -16.8410 C.2   230  ASN230      0.2627
    102  OD1      -23.5960   15.5320  -17.0590 O.2   230  ASN230     -0.2716
    103  ND2      -22.8750   13.4250  -17.3410 N.am  230  ASN230     -0.0877
    104  N        -28.9770   17.4240  -14.5740 N.3   252  ILE252     -0.1245
    105  CA       -28.1610   18.6300  -14.5420 C.3   252  ILE252      0.1561
    106  C        -27.5510   18.7280  -15.9280 C.2   252  ILE252      0.2260
    107  O        -26.7330   17.8930  -16.3020 O.2   252  ILE252     -0.2867
    108  CB       -27.0170   18.5600  -13.5490 C.3   252  ILE252      0.0252
    109  CG1      -27.5430   18.3510  -12.1350 C.3   252  ILE252      0.0019
    110  CG2      -26.2510   19.8560  -13.6020 C.3   252  ILE252      0.0019
    111  CD1      -26.4340   18.0950  -11.1150 C.3   252  ILE252      0.0001
    112  N        -25.1730   20.2240  -18.7690 N.3   254  TYR254     -0.1227
    113  CA       -23.8720   20.8670  -18.8090 C.3   254  TYR254      0.1736
    114  C        -23.9870   22.3800  -19.0110 C.2   254  TYR254      0.2596
    115  O        -24.6380   22.8510  -19.9500 O.2   254  TYR254     -0.2718
    116  CB       -23.0280   20.2490  -19.9100 C.3   254  TYR254      0.0548
    117  CG       -21.6350   20.8070  -20.0200 C.ar  254  TYR254     -0.0200
    118  CD1      -20.7310   20.6820  -18.9930 C.ar  254  TYR254     -0.0009
    119  CD2      -21.2260   21.4690  -21.1320 C.ar  254  TYR254     -0.0009
    120  CE1      -19.4440   21.1940  -19.0640 C.ar  254  TYR254      0.0417
    121  CE2      -19.9390   22.0040  -21.2180 C.ar  254  TYR254      0.0417
    122  CZ       -19.0600   21.8200  -20.2200 C.ar  254  TYR254      0.1957
    123  OH       -17.7840   22.3720  -20.3350 O.3   254  TYR254     -0.2866
    124  N        -23.3520   23.1290  -18.1110 N.am  255  GLY255     -0.1942
    125  CA       -23.3700   24.5760  -18.1910 C.3   255  GLY255      0.2014
    126  C        -24.5660   25.1940  -17.4990 C.2   255  GLY255      0.2638
    127  O        -24.6180   26.4080  -17.2940 O.2   255  GLY255     -0.2714
    128  N        -25.5420   24.3630  -17.1520 N.am  256  GLN256     -0.1977
    129  CA       -26.7350   24.8470  -16.4760 C.3   256  GLN256      0.1601
    130  C        -26.8090   24.1120  -15.1640 C.2   256  GLN256      0.2287
    131  O        -26.0120   23.2150  -14.9030 O.2   256  GLN256     -0.2864
    132  CB       -27.9740   24.5560  -17.3150 C.3   256  GLN256      0.0394
    133  CG       -27.9390   25.1980  -18.6840 C.3   256  GLN256      0.0908
    134  CD       -29.1420   24.8360  -19.5270 C.2   256  GLN256      0.2608
    135  OE1      -30.2780   25.2160  -19.2180 O.2   256  GLN256     -0.2717
    136  NE2      -28.9020   24.0890  -20.5990 N.am  256  GLN256     -0.0878
@<TRIPOS>BOND
     1   121   119   ar
     2   121   122   ar
     3   119   117   ar
     4   136   134   am
     5   123   122    1
     6   122   120   ar
     7   117   116    1
     8   117   118   ar
     9   115   114    2
    10   116   113    1
    11   134   135    2
    12   134   133    1
    13   120   118   ar
    14   114   113    1
    15   114   124   am
    16   113   112    1
    17   133   132    1
    18   125   124    1
    19   125   126    1
    20   126   127    2
    21   126   128   am
    22    96    97    1
    23   103   101   am
    24   132   129    1
    25   128   129    1
    26   102   101    2
    27   101   100    1
    28    97   100    1
    29    97    98    1
    30   129   130    1
    31   107   106    2
    32   106   105    1
    33    98    99    2
    34   130   131    2
    35    95    93    1
    36   104   105    1
    37   105   108    1
    38    56    54   ar
    39    93    92    2
    40    93    94    1
    41    92    91    1
    42    91    90    1
    43    63    65   ar
    44    63    62   ar
    45   110   108    1
    46    65    67   ar
    47   108   109    1
    48    57    58    1
    49    58    61    1
    50    58    59    1
    51    54    55   ar
    52    54    53    1
    53    90    89    1
    54    61    62    1
    55    62    64   ar
    56    60    59    2
    57    67    68    1
    58    67    66   ar
    59    15    14    1
    60    53    50    1
    61    14    11    1
    62   109   111    1
    63    89    86    1
    64    64    66   ar
    65    13    12    2
    66    87    88    2
    67    87    86    1
    68    86    85    1
    69    52    51    2
    70    50    51    1
    71    50    49    1
    72    11    12    1
    73    11    10    1
    74    12    16   am
    75    47    46    1
    76     4     3    2
    77    10     3   am
    78    48    46    1
    79     3     2    1
    80    16    17    1
    81    17    18    1
    82    17    20    1
    83    46    43    1
    84    18    22   am
    85    18    19    2
    86    22    23    1
    87    23    24    1
    88     5     2    1
    89     5     6    1
    90     2     1    1
    91    20    21    1
    92     8     7   ar
    93    43    42    1
    94    43    44    1
    95     6     7    1
    96    24    25    2
    97    24    26   am
    98     7     9   ar
    99    42    37   am
   100    44    45    2
   101    41    39    1
   102    26    27    1
   103    39    40    1
   104    39    36    1
   105    37    36    1
   106    37    38    2
   107    35    36    1
   108    35    28   am
   109    34    33    1
   110    27    28    1
   111    27    30    1
   112    28    29    2
   113    83    82    2
   114    31    30    1
   115    31    32    1
   116    84    82   am
   117    82    81    1
   118    33    32    1
   119    81    78    1
   120    78    79    1
   121    78    77    1
   122    76    74    1
   123    79    80    2
   124    75    73    1
   125    74    73    1
   126    73    70    1
   127    70    71    1
   128    70    69    1
   129    72    71    2
