@<TRIPOS>MOLECULE
tmp/2zs0B00.pdb
 237 226 0 0 0
SMALL
GASTEIGER

@<TRIPOS>ATOM
      1  N          0.7130   12.7950   40.0710 N.3    32  TRP32      -0.1241
      2  CA        -0.3090   12.9910   41.1030 C.3    32  TRP32       0.1605
      3  C         -0.9890   11.7020   41.5100 C.2    32  TRP32       0.2264
      4  O         -1.2830   11.5070   42.6930 O.2    32  TRP32      -0.2867
      5  CB        -1.3500   13.9950   40.6260 C.3    32  TRP32       0.0550
      6  CG        -0.7180   15.2690   40.2560 C.ar   32  TRP32       0.0003
      7  CD1       -0.6130   15.7840   39.0020 C.ar   32  TRP32       0.0946
      8  CD2       -0.0150   16.1670   41.1210 C.ar   32  TRP32       0.0152
      9  NE1        0.1150   16.9390   39.0250 N.ar   32  TRP32      -0.2442
     10  CE2        0.4980   17.2020   40.3110 C.ar   32  TRP32       0.0810
     11  CE3        0.2360   16.2010   42.4990 C.ar   32  TRP32       0.0012
     12  CZ2        1.2440   18.2590   40.8310 C.ar   32  TRP32       0.0191
     13  CZ3        0.9800   17.2550   43.0180 C.ar   32  TRP32       0.0001
     14  CH2        1.4750   18.2700   42.1820 C.ar   32  TRP32       0.0015
     15  N          1.5570   10.0450   43.7840 N.3    35  LEU35      -0.1245
     16  CA         1.7520   10.7760   45.0310 C.3    35  LEU35       0.1561
     17  C          0.5500   10.6370   45.9650 C.2    35  LEU35       0.2260
     18  O          0.7120   10.4330   47.1700 O.2    35  LEU35      -0.2867
     19  CB         2.0160   12.2620   44.7580 C.3    35  LEU35       0.0270
     20  CG         2.1410   13.1770   45.9780 C.3    35  LEU35       0.0019
     21  CD1        3.3140   12.7360   46.8560 C.3    35  LEU35       0.0001
     22  CD2        2.3600   14.6060   45.5000 C.3    35  LEU35       0.0001
     23  N          0.5790    8.9260   49.5230 N.3    39  MET39      -0.1245
     24  CA         0.4050    9.9200   50.5640 C.3    39  MET39       0.1570
     25  C         -0.9760   10.5730   50.4560 C.2    39  MET39       0.2261
     26  O         -1.0900   11.7490   50.1040 O.2    39  MET39      -0.2867
     27  CB         1.5060   10.9770   50.4560 C.3    39  MET39       0.0387
     28  CG         1.6720   11.8260   51.6890 C.3    39  MET39       0.0595
     29  SD         3.0150   12.9910   51.4890 S.3    39  MET39      -0.1393
     30  CE         3.0030   13.7920   53.0640 C.3    39  MET39       0.0692
     31  N         -1.8770   14.1460   51.5130 N.3    42  ALA42      -0.1245
     32  CA        -1.3550   15.2630   50.7210 C.3    42  ALA42       0.1562
     33  C         -2.4470   15.8990   49.8590 C.2    42  ALA42       0.2260
     34  O         -2.4000   17.0970   49.5850 O.2    42  ALA42      -0.2867
     35  CB        -0.2100   14.7710   49.8340 C.3    42  ALA42       0.0290
     36  N         -4.0460   19.2570   50.7610 N.3    45  LEU45      -0.1231
     37  CA        -3.2810   20.4890   50.5490 C.3    45  LEU45       0.1693
     38  C         -3.6980   21.2220   49.2720 C.2    45  LEU45       0.2592
     39  O         -3.4490   22.4190   49.1340 O.2    45  LEU45      -0.2718
     40  CB        -1.7840   20.1700   50.4820 C.3    45  LEU45       0.0284
     41  CG        -1.1810   19.4420   51.6900 C.3    45  LEU45       0.0019
     42  CD1        0.1950   18.8810   51.3040 C.3    45  LEU45       0.0001
     43  CD2       -1.0880   20.3930   52.8790 C.3    45  LEU45       0.0001
     44  N         -4.3540   20.4980   48.3700 N.am   46  PHE46      -0.1976
     45  CA        -4.7180   21.0150   47.0480 C.3    46  PHE46       0.1639
     46  C         -6.2140   21.3160   46.9090 C.2    46  PHE46       0.2290
     47  O         -6.7480   21.3610   45.8040 O.2    46  PHE46      -0.2864
     48  CB        -4.2790   20.0120   45.9800 C.3    46  PHE46       0.0560
     49  CG        -2.8020   19.7350   45.9930 C.ar   46  PHE46      -0.0200
     50  CD1       -1.9050   20.5950   45.3650 C.ar   46  PHE46      -0.0042
     51  CD2       -2.3020   18.6370   46.6870 C.ar   46  PHE46      -0.0042
     52  CE1       -0.5330   20.3590   45.4350 C.ar   46  PHE46      -0.0003
     53  CE2       -0.9270   18.3940   46.7640 C.ar   46  PHE46      -0.0003
     54  CZ        -0.0430   19.2560   46.1380 C.ar   46  PHE46      -0.0000
     55  N         -7.9200   24.0170   47.1930 N.3    48  ARG48      -0.1231
     56  CA        -8.2060   25.2460   46.4380 C.3    48  ARG48       0.1694
     57  C         -8.1660   25.0280   44.9210 C.2    48  ARG48       0.2591
     58  O         -8.8490   25.7330   44.1720 O.2    48  ARG48      -0.2718
     59  CB        -7.2270   26.3530   46.8200 C.3    48  ARG48       0.0321
     60  CG        -7.6950   27.7510   46.4300 C.3    48  ARG48       0.0489
     61  CD        -6.5650   28.7650   46.4880 C.3    48  ARG48       0.2205
     62  NE        -5.5780   28.5410   45.4280 N.pl3  48  ARG48      -0.0865
     63  CZ        -5.7330   28.8930   44.1530 C.cat  48  ARG48       0.5346
     64  NH1       -6.8440   29.5040   43.7390 N.pl3  48  ARG48       0.1354
     65  NH2       -4.7680   28.6260   43.2830 N.pl3  48  ARG48       0.1354
     66  N         -7.3670   24.0540   44.4800 N.am   49  VAL49      -0.1980
     67  CA        -7.2950   23.6700   43.0640 C.3    49  VAL49       0.1595
     68  C         -8.0070   22.3350   42.7600 C.2    49  VAL49       0.2287
     69  O         -7.6690   21.6360   41.8030 O.2    49  VAL49      -0.2864
     70  CB        -5.8270   23.6710   42.5500 C.3    49  VAL49       0.0276
     71  CG1       -5.2700   25.0820   42.6160 C.3    49  VAL49       0.0022
     72  CG2       -4.9660   22.7250   43.3750 C.3    49  VAL49       0.0022
     73  N         -3.1920   23.5770   37.7000 N.3    62  HIS62      -0.1241
     74  CA        -2.1950   23.4650   38.7490 C.3    62  HIS62       0.1621
     75  C         -1.0810   22.4890   38.3440 C.2    62  HIS62       0.2264
     76  O          0.1070   22.7950   38.4860 O.2    62  HIS62      -0.2867
     77  CB        -2.8420   22.9930   40.0550 C.3    62  HIS62       0.0745
     78  CG        -1.8450   22.5300   41.0660 C.ar   62  HIS62       0.0817
     79  ND1       -1.0310   23.4020   41.7550 N.ar   62  HIS62      -0.2268
     80  CD2       -1.4580   21.2850   41.4260 C.ar   62  HIS62       0.1154
     81  CE1       -0.1800   22.7100   42.4920 C.ar   62  HIS62       0.1986
     82  NE2       -0.4180   21.4260   42.3090 N.ar   62  HIS62      -0.2212
     83  N          1.1590   23.9870   35.8310 N.3    65  ARG65      -0.1231
     84  CA         2.0390   24.9860   36.4720 C.3    65  ARG65       0.1694
     85  C          3.2090   24.3020   37.1710 C.2    65  ARG65       0.2591
     86  O          4.3440   24.7680   37.0870 O.2    65  ARG65      -0.2718
     87  CB         1.2740   25.8340   37.4850 C.3    65  ARG65       0.0321
     88  CG         0.3470   26.8290   36.8510 C.3    65  ARG65       0.0489
     89  CD        -0.1030   27.8740   37.8740 C.3    65  ARG65       0.2205
     90  NE        -1.0090   27.3620   38.8950 N.pl3  65  ARG65      -0.0865
     91  CZ        -2.3230   27.1790   38.7340 C.cat  65  ARG65       0.5346
     92  NH1       -2.9140   27.4570   37.5760 N.pl3  65  ARG65       0.1354
     93  NH2       -3.0550   26.7580   39.7590 N.pl3  65  ARG65       0.1354
     94  N          2.9300   23.2010   37.8670 N.am   66  VAL66      -0.1980
     95  CA         3.9950   22.4670   38.5590 C.3    66  VAL66       0.1595
     96  C          5.0400   21.9630   37.5620 C.2    66  VAL66       0.2287
     97  O          6.2560   22.1530   37.7670 O.2    66  VAL66      -0.2864
     98  CB         3.4180   21.2970   39.3970 C.3    66  VAL66       0.0276
     99  CG1        4.5490   20.4610   39.9860 C.3    66  VAL66       0.0022
    100  CG2        2.5890   21.8710   40.5340 C.3    66  VAL66       0.0022
    101  N          7.1490   24.6630   36.4080 N.3    69  GLY69      -0.1210
    102  CA         8.1190   25.0770   37.4050 C.3    69  GLY69       0.1956
    103  C          9.3090   24.1370   37.3560 C.2    69  GLY69       0.2611
    104  O         10.4530   24.5770   37.4380 O.2    69  GLY69      -0.2717
    105  N          9.0530   22.8430   37.2070 N.am   70  LEU70      -0.1979
    106  CA        10.1460   21.8860   37.1260 C.3    70  LEU70       0.1596
    107  C         10.9620   22.1730   35.8630 C.2    70  LEU70       0.2287
    108  O         12.1800   22.1180   35.8710 O.2    70  LEU70      -0.2864
    109  CB         9.5910   20.4610   37.1090 C.3    70  LEU70       0.0297
    110  CG        10.6080   19.3530   37.3410 C.3    70  LEU70       0.0022
    111  CD1       11.4810   19.6950   38.5450 C.3    70  LEU70       0.0001
    112  CD2        9.8790   18.0460   37.5600 C.3    70  LEU70       0.0001
    113  N         11.4510   25.0500   34.3330 N.3    72  MET72      -0.1230
    114  CA        12.2970   26.2270   34.5660 C.3    72  MET72       0.1702
    115  C         13.5720   25.8230   35.2840 C.2    72  MET72       0.2592
    116  O         14.6660   26.2800   34.9480 O.2    72  MET72      -0.2718
    117  CB        11.5890   27.2780   35.4250 C.3    72  MET72       0.0401
    118  CG        10.3710   27.8950   34.7990 C.3    72  MET72       0.0596
    119  SD         9.8290   29.3190   35.7660 S.3    72  MET72      -0.1393
    120  CE         9.3650   28.6110   37.2680 C.3    72  MET72       0.0692
    121  N         13.4200   24.9730   36.2930 N.am   73  CYS73      -0.1970
    122  CA        14.5660   24.5720   37.0970 C.3    73  CYS73       0.1712
    123  C         15.4980   23.6900   36.2810 C.2    73  CYS73       0.2296
    124  O         16.7220   23.8710   36.3080 O.2    73  CYS73      -0.2864
    125  CB        14.0930   23.8330   38.3510 C.3    73  CYS73       0.0983
    126  SG        13.1980   24.9090   39.5090 S.3    73  CYS73      -0.0798
    127  N          9.9250   29.9280   44.1910 N.3    90  LEU90      -0.1245
    128  CA         9.1880   28.7100   44.5170 C.3    90  LEU90       0.1561
    129  C          9.0670   28.4970   46.0280 C.2    90  LEU90       0.2260
    130  O          8.0270   28.0690   46.5240 O.2    90  LEU90      -0.2867
    131  CB         9.8320   27.5000   43.8310 C.3    90  LEU90       0.0270
    132  CG         9.5640   27.4660   42.3110 C.3    90  LEU90       0.0019
    133  CD1       10.5500   26.5340   41.6530 C.3    90  LEU90       0.0001
    134  CD2        8.0900   27.0450   42.0370 C.3    90  LEU90       0.0001
    135  N          6.3770   30.6170   47.3710 N.3    93  GLN93      -0.1231
    136  CA         5.0730   30.1250   46.9470 C.3    93  GLN93       0.1698
    137  C          4.6210   28.8670   47.6940 C.2    93  GLN93       0.2592
    138  O          3.4480   28.4780   47.6120 O.2    93  GLN93      -0.2718
    139  CB         5.0860   29.8770   45.4330 C.3    93  GLN93       0.0381
    140  CG         5.1960   31.1730   44.6510 C.3    93  GLN93       0.0905
    141  CD         5.5700   30.9660   43.1900 C.2    93  GLN93       0.2608
    142  OE1        6.2010   29.9710   42.8380 O.2    93  GLN93      -0.2717
    143  NE2        5.2120   31.9300   42.3390 N.am   93  GLN93      -0.0878
    144  N          5.5420   28.2350   48.4230 N.am   94  HIS94      -0.1976
    145  CA         5.2280   27.0020   49.1610 C.3    94  HIS94       0.1656
    146  C          5.2180   27.1390   50.6790 C.2    94  HIS94       0.2291
    147  O          4.8110   26.2150   51.3810 O.2    94  HIS94      -0.2864
    148  CB         6.1930   25.8630   48.7850 C.3    94  HIS94       0.0771
    149  CG         5.9180   25.2810   47.4390 C.ar   94  HIS94       0.0820
    150  ND1        6.2910   25.9170   46.2750 N.ar   94  HIS94      -0.2267
    151  CD2        5.2540   24.1620   47.0650 C.ar   94  HIS94       0.1154
    152  CE1        5.8680   25.2140   45.2410 C.ar   94  HIS94       0.1986
    153  NE2        5.2350   24.1430   45.6890 N.ar   94  HIS94      -0.2212
    154  N          1.9040   26.8760   54.1750 N.3    97  ARG97      -0.1245
    155  CA         0.7850   26.1230   53.6100 C.3    97  ARG97       0.1563
    156  C          0.5770   24.8250   54.3840 C.2    97  ARG97       0.2260
    157  O         -0.2890   24.0130   54.0350 O.2    97  ARG97      -0.2867
    158  CB         1.0380   25.7950   52.1370 C.3    97  ARG97       0.0307
    159  CG         1.0550   27.0050   51.2140 C.3    97  ARG97       0.0489
    160  CD         1.0820   26.5830   49.7450 C.3    97  ARG97       0.2205
    161  NE         1.0160   27.7340   48.8480 N.pl3  97  ARG97      -0.0865
    162  CZ        -0.1100   28.3230   48.4560 C.cat  97  ARG97       0.5346
    163  NH1       -1.2860   27.8660   48.8710 N.pl3  97  ARG97       0.1354
    164  NH2       -0.0600   29.3820   47.6610 N.pl3  97  ARG97       0.1354
    165  N          2.6540   22.3570   54.4550 N.3    99  ILE99      -0.1231
    166  CA         3.1660   21.2210   53.6980 C.3    99  ILE99       0.1678
    167  C          4.1630   20.4520   54.5680 C.2    99  ILE99       0.2434
    168  O          5.1420   21.0300   55.0400 O.2    99  ILE99      -0.2733
    169  CB         3.8610   21.6800   52.4020 C.3    99  ILE99       0.0265
    170  CG1        2.8450   22.3660   51.4860 C.3    99  ILE99       0.0019
    171  CG2        4.4740   20.4850   51.6880 C.3    99  ILE99       0.0020
    172  CD1        3.4760   23.0970   50.2830 C.3    99  ILE99       0.0001
    173  N          3.9120   19.1470   54.7930 N.am  100  PRO100     -0.2729
    174  CA         4.8660   18.3740   55.5910 C.3   100  PRO100      0.1401
    175  C          6.1850   18.1790   54.8580 C.2   100  PRO100      0.2269
    176  O          6.1960   18.0490   53.6350 O.2   100  PRO100     -0.2865
    177  CB         4.1170   17.0720   55.8550 C.3   100  PRO100      0.0296
    178  CG         3.2510   16.9280   54.6390 C.3   100  PRO100      0.0237
    179  CD         2.7520   18.3330   54.4010 C.3   100  PRO100      0.0939
    180  N          6.4610   15.4210   52.3300 N.3   103  GLY103     -0.1210
    181  CA         5.8050   15.5690   51.0340 C.3   103  GLY103      0.1956
    182  C          6.7970   15.7110   49.8940 C.2   103  GLY103      0.2611
    183  O          6.5340   15.2670   48.7830 O.2   103  GLY103     -0.2717
    184  N          7.9410   16.3220   50.1750 N.am  104  TYR104     -0.1976
    185  CA         8.9550   16.5680   49.1360 C.3   104  TYR104      0.1639
    186  C          9.6690   15.2990   48.6340 C.2   104  TYR104      0.2290
    187  O          9.6900   15.0560   47.4260 O.2   104  TYR104     -0.2864
    188  CB         9.9240   17.6530   49.6060 C.3   104  TYR104      0.0560
    189  CG         9.2520   19.0090   49.6340 C.ar  104  TYR104     -0.0198
    190  CD1        9.1150   19.7680   48.4680 C.ar  104  TYR104     -0.0009
    191  CD2        8.7040   19.5170   50.8170 C.ar  104  TYR104     -0.0009
    192  CE1        8.4480   21.0040   48.4790 C.ar  104  TYR104      0.0417
    193  CE2        8.0430   20.7490   50.8380 C.ar  104  TYR104      0.0417
    194  CZ         7.9180   21.4830   49.6650 C.ar  104  TYR104      0.1957
    195  OH         7.2750   22.6970   49.6820 O.3   104  TYR104     -0.2866
    196  N          7.1640   13.4850   46.5350 N.3   107  PHE107     -0.1241
    197  CA         6.9930   14.0860   45.2110 C.3   107  PHE107      0.1605
    198  C          8.1550   13.7080   44.2910 C.2   107  PHE107      0.2264
    199  O          7.9490   13.4050   43.1060 O.2   107  PHE107     -0.2867
    200  CB         6.9020   15.6090   45.3260 C.3   107  PHE107      0.0534
    201  CG         6.7160   16.3070   43.9960 C.ar  107  PHE107     -0.0203
    202  CD1        5.4400   16.5820   43.5010 C.ar  107  PHE107     -0.0042
    203  CD2        7.8230   16.6470   43.2270 C.ar  107  PHE107     -0.0042
    204  CE1        5.2740   17.1900   42.2480 C.ar  107  PHE107     -0.0003
    205  CE2        7.6700   17.2510   41.9760 C.ar  107  PHE107     -0.0003
    206  CZ         6.3910   17.5230   41.4890 C.ar  107  PHE107     -0.0000
    207  N         16.9930   16.2640   41.4830 N.3   133  MET133     -0.1245
    208  CA        15.6960   16.6040   42.0630 C.3   133  MET133      0.1570
    209  C         15.8640   17.0530   43.5080 C.2   133  MET133      0.2261
    210  O         15.1690   17.9590   43.9630 O.2   133  MET133     -0.2867
    211  CB        14.7230   15.4210   41.9730 C.3   133  MET133      0.0387
    212  CG        14.2270   15.1600   40.5560 C.3   133  MET133      0.0595
    213  SD        13.2620   16.5410   39.8760 S.3   133  MET133     -0.1393
    214  CE        11.8970   16.6190   41.0570 C.3   133  MET133      0.0692
    215  N         16.8420   20.6300   43.7220 N.3   136  ILE136     -0.1231
    216  CA        15.6600   21.4370   43.4950 C.3   136  ILE136      0.1692
    217  C         14.7670   21.5310   44.7290 C.2   136  ILE136      0.2591
    218  O         14.4590   22.6310   45.1890 O.2   136  ILE136     -0.2718
    219  CB        14.8810   20.9350   42.2650 C.3   136  ILE136      0.0266
    220  CG1       15.7230   21.1990   41.0090 C.3   136  ILE136      0.0019
    221  CG2       13.5430   21.6670   42.1560 C.3   136  ILE136      0.0020
    222  CD1       15.2390   20.4620   39.7590 C.3   136  ILE136      0.0001
    223  N         14.3490   20.3970   45.2870 N.am  137  VAL137     -0.1980
    224  CA        13.4250   20.5130   46.4060 C.3   137  VAL137      0.1595
    225  C         14.0960   21.0890   47.6540 C.2   137  VAL137      0.2287
    226  O         13.4170   21.6790   48.4970 O.2   137  VAL137     -0.2864
    227  CB        12.6940   19.1780   46.7330 C.3   137  VAL137      0.0276
    228  CG1       11.8880   18.7180   45.5120 C.3   137  VAL137      0.0022
    229  CG2       13.6620   18.1150   47.1720 C.3   137  VAL137      0.0022
    230  N         13.2030   24.5660   47.6500 N.3   140  ILE140     -0.1245
    231  CA        11.7760   24.8870   47.7420 C.3   140  ILE140      0.1561
    232  C         11.2590   24.6600   49.1580 C.2   140  ILE140      0.2260
    233  O         10.5020   25.4780   49.6880 O.2   140  ILE140     -0.2867
    234  CB        10.9410   24.0220   46.7820 C.3   140  ILE140      0.0252
    235  CG1       11.3980   24.2590   45.3340 C.3   140  ILE140      0.0019
    236  CG2        9.4450   24.3500   46.9380 C.3   140  ILE140      0.0019
    237  CD1       10.6870   23.3940   44.2960 C.3   140  ILE140      0.0001
@<TRIPOS>BOND
     1   113   114    1
     2   114   115    1
     3   114   117    1
     4   118   117    1
     5   118   119    1
     6   116   115    2
     7   115   121   am
     8   119   120    1
     9    83    84    1
    10   107   108    2
    11   107   106    1
    12   123   124    2
    13   123   122    1
    14   121   122    1
    15   101   102    1
    16    84    85    1
    17    84    87    1
    18    88    87    1
    19    88    89    1
    20    86    85    2
    21   122   125    1
    22   109   106    1
    23   109   110    1
    24   106   105    1
    25    85    94   am
    26   105   103   am
    27   110   112    1
    28   110   111    1
    29   103   102    1
    30   103   104    2
    31    96    97    2
    32    96    95    1
    33    92    91    1
    34    73    74    1
    35    94    95    1
    36    89    90    1
    37    75    76    2
    38    75    74    1
    39   125   126    1
    40    95    98    1
    41    91    90    2
    42    91    93    1
    43    74    77    1
    44     7     9   ar
    45     7     6   ar
    46     9    10   ar
    47    98    99    1
    48    98   100    1
    49   222   220    1
    50   213   212    1
    51   213   214    1
    52    77    78    1
    53     1     2    1
    54     6     5    1
    55     6     8   ar
    56    10    12   ar
    57    10     8   ar
    58   212   211    1
    59     5     2    1
    60    12    14   ar
    61   220   219    1
    62    78    80   ar
    63    78    79   ar
    64     2     3    1
    65     8    11   ar
    66    80    82   ar
    67   207   208    1
    68   206   205   ar
    69   206   204   ar
    70     3     4    2
    71   133   132    1
    72    79    81   ar
    73    69    68    2
    74   211   208    1
    75   205   203   ar
    76   134   132    1
    77   208   209    1
    78   221   219    1
    79    14    13   ar
    80   204   202   ar
    81   219   216    1
    82    82    81   ar
    83   132   131    1
    84   143   141   am
    85    11    13   ar
    86    70    71    1
    87    70    67    1
    88    70    72    1
    89    68    67    1
    90   142   141    2
    91    67    66    1
    92   199   198    2
    93   141   140    1
    94   203   201   ar
    95    65    63    1
    96   216   215    1
    97   216   217    1
    98   202   201   ar
    99   209   210    2
   100    64    63    1
   101    15    16    1
   102   131   128    1
   103   201   200    1
   104    63    62    2
   105    58    57    2
   106   127   128    1
   107   198   197    1
   108   237   235    1
   109    66    57   am
   110   128   129    1
   111   140   139    1
   112   217   218    2
   113   217   223   am
   114    19    16    1
   115    19    20    1
   116    57    56    1
   117    16    17    1
   118   197   200    1
   119   197   196    1
   120   152   153   ar
   121   152   150   ar
   122   223   224    1
   123   235   234    1
   124    50    52   ar
   125    50    49   ar
   126    62    61    1
   127   139   136    1
   128    52    54   ar
   129    22    20    1
   130   228   227    1
   131   153   151   ar
   132    47    46    2
   133    17    18    2
   134    20    21    1
   135    48    49    1
   136    48    45    1
   137    49    51   ar
   138   129   130    2
   139    54    53   ar
   140   150   149   ar
   141   224   227    1
   142   224   225    1
   143    60    61    1
   144    60    59    1
   145    56    59    1
   146    56    55    1
   147    51    53   ar
   148   227   229    1
   149   234   236    1
   150   234   231    1
   151    46    45    1
   152   136   135    1
   153   136   137    1
   154    45    44    1
   155   151   149   ar
   156   187   186    2
   157   149   148    1
   158   138   137    2
   159   230   231    1
   160   225   226    2
   161   164   162    1
   162   137   144   am
   163   231   232    1
   164    44    38   am
   165   144   145    1
   166   162   161    2
   167   162   163    1
   168   190   192   ar
   169   190   189   ar
   170   192   194   ar
   171   186   185    1
   172   183   182    2
   173   148   145    1
   174   161   160    1
   175    39    38    2
   176   185   188    1
   177   185   184    1
   178   232   233    2
   179   145   146    1
   180    38    37    1
   181    23    24    1
   182    34    33    2
   183   188   189    1
   184   189   191   ar
   185   194   195    1
   186   194   193   ar
   187   160   159    1
   188    35    32    1
   189    33    32    1
   190   182   184   am
   191   182   181    1
   192    26    25    2
   193   172   170    1
   194    25    24    1
   195    27    24    1
   196    27    28    1
   197    40    37    1
   198    40    41    1
   199    37    36    1
   200   146   147    2
   201    32    31    1
   202   191   193   ar
   203   181   180    1
   204   159   158    1
   205    42    41    1
   206   170   169    1
   207    29    28    1
   208    29    30    1
   209   171   169    1
   210    41    43    1
   211   158   155    1
   212   169   166    1
   213   155   154    1
   214   155   156    1
   215   176   175    2
   216   166   165    1
   217   166   167    1
   218   157   156    2
   219   179   178    1
   220   179   173    1
   221   167   173   am
   222   167   168    2
   223   178   177    1
   224   173   174    1
   225   175   174    1
   226   174   177    1
