@<TRIPOS>MOLECULE
tmp/2zs0D00.pdb
 187 176 0 0 0
SMALL
GASTEIGER

@<TRIPOS>ATOM
      1  N         37.7400   15.9990   29.0840 N.3    36  PHE36      -0.1241
      2  CA        39.0900   16.4020   29.4830 C.3    36  PHE36       0.1605
      3  C         39.4200   16.0630   30.9270 C.2    36  PHE36       0.2264
      4  O         40.5440   15.6520   31.2140 O.2    36  PHE36      -0.2867
      5  CB        39.3290   17.8760   29.1690 C.3    36  PHE36       0.0534
      6  CG        39.9060   18.0970   27.7980 C.ar   36  PHE36      -0.0203
      7  CD1       41.2680   17.9040   27.5600 C.ar   36  PHE36      -0.0042
      8  CD2       39.0890   18.4270   26.7330 C.ar   36  PHE36      -0.0042
      9  CE1       41.7980   18.0360   26.2820 C.ar   36  PHE36      -0.0003
     10  CE2       39.6160   18.5580   25.4450 C.ar   36  PHE36      -0.0003
     11  CZ        40.9780   18.3610   25.2220 C.ar   36  PHE36      -0.0000
     12  N         40.2440   12.4580   30.9880 N.3    39  PHE39      -0.1241
     13  CA        41.4920   12.2770   30.2510 C.3    39  PHE39       0.1605
     14  C         42.6930   12.6890   31.1020 C.2    39  PHE39       0.2264
     15  O         43.6940   11.9750   31.1320 O.2    39  PHE39      -0.2867
     16  CB        41.4670   13.1020   28.9540 C.3    39  PHE39       0.0534
     17  CG        42.8280   13.3610   28.3650 C.ar   39  PHE39      -0.0203
     18  CD1       43.5270   12.3540   27.7110 C.ar   39  PHE39      -0.0042
     19  CD2       43.3990   14.6270   28.4510 C.ar   39  PHE39      -0.0042
     20  CE1       44.7730   12.6020   27.1440 C.ar   39  PHE39      -0.0003
     21  CE2       44.6430   14.8880   27.8870 C.ar   39  PHE39      -0.0003
     22  CZ        45.3320   13.8770   27.2330 C.ar   39  PHE39      -0.0000
     23  N         48.7100   13.5350   31.5990 N.3    45  VAL45      -0.1245
     24  CA        49.1690   14.6350   30.7580 C.3    45  VAL45       0.1561
     25  C         48.9200   15.9840   31.4460 C.2    45  VAL45       0.2260
     26  O         47.8680   16.1940   32.0590 O.2    45  VAL45      -0.2867
     27  CB        48.4690   14.5760   29.3750 C.3    45  VAL45       0.0252
     28  CG1       48.7040   15.8680   28.5960 C.3    45  VAL45       0.0019
     29  CG2       49.0120   13.3850   28.5960 C.3    45  VAL45       0.0019
     30  N         49.8540   21.9460   28.7010 N.3    49  MET49      -0.1230
     31  CA        50.2050   21.8000   27.2880 C.3    49  MET49       0.1702
     32  C         49.0760   22.2340   26.3490 C.2    49  MET49       0.2592
     33  O         49.2740   22.3020   25.1310 O.2    49  MET49      -0.2718
     34  CB        50.6850   20.3860   26.9510 C.3    49  MET49       0.0401
     35  CG        49.6340   19.3400   26.8410 C.3    49  MET49       0.0596
     36  SD        50.3700   17.8300   26.1590 S.3    49  MET49      -0.1393
     37  CE        50.5670   18.2740   24.4580 C.3    49  MET49       0.0692
     38  N         47.9140   22.5360   26.9340 N.am   50  PHE50      -0.1963
     39  CA        46.7250   22.9300   26.1780 C.3    50  PHE50       0.1756
     40  C         46.5120   24.4320   26.1840 C.2    50  PHE50       0.2461
     41  O         46.9530   25.0980   27.1100 O.2    50  PHE50      -0.2730
     42  CB        45.4950   22.2160   26.7500 C.3    50  PHE50       0.0574
     43  CG        45.4790   20.7510   26.4440 C.ar   50  PHE50      -0.0200
     44  CD1       44.9250   20.2870   25.2550 C.ar   50  PHE50      -0.0042
     45  CD2       46.0700   19.8310   27.3110 C.ar   50  PHE50      -0.0042
     46  CE1       44.9600   18.9280   24.9300 C.ar   50  PHE50      -0.0003
     47  CE2       46.1110   18.4750   26.9960 C.ar   50  PHE50      -0.0003
     48  CZ        45.5540   18.0200   25.7990 C.ar   50  PHE50      -0.0000
     49  N         45.8400   24.9700   25.1460 N.am   51  PRO51      -0.2727
     50  CA        45.4630   26.3760   25.1400 C.3    51  PRO51       0.1402
     51  C         44.6930   26.7180   26.4120 C.2    51  PRO51       0.2269
     52  O         43.8590   25.9260   26.8770 O.2    51  PRO51      -0.2865
     53  CB        44.5750   26.4920   23.9010 C.3    51  PRO51       0.0296
     54  CG        45.0990   25.4360   22.9960 C.3    51  PRO51       0.0237
     55  CD        45.3740   24.2810   23.9250 C.3    51  PRO51       0.0939
     56  N         39.3100   25.3700   22.6070 N.3    64  GLN64      -0.1245
     57  CA        39.9820   24.1020   22.3340 C.3    64  GLN64       0.1566
     58  C         38.9770   22.9560   22.5350 C.2    64  GLN64       0.2260
     59  O         38.9120   22.0380   21.7140 O.2    64  GLN64      -0.2867
     60  CB        41.1820   23.9250   23.2820 C.3    64  GLN64       0.0367
     61  CG        41.8090   22.5330   23.2920 C.3    64  GLN64       0.0905
     62  CD        42.5620   22.2090   22.0260 C.2    64  GLN64       0.2608
     63  OE1       42.8980   23.0980   21.2490 O.2    64  GLN64      -0.2717
     64  NE2       42.8540   20.9290   21.8190 N.am   64  GLN64      -0.0878
     65  N         36.7420   22.6640   19.6330 N.3    67  ARG67      -0.1231
     66  CA        37.4380   22.0520   18.5090 C.3    67  ARG67       0.1694
     67  C         37.5460   20.5390   18.6440 C.2    67  ARG67       0.2591
     68  O         37.3320   19.8110   17.6750 O.2    67  ARG67      -0.2718
     69  CB        38.8350   22.6640   18.3360 C.3    67  ARG67       0.0321
     70  CG        38.7710   24.0820   17.8050 C.3    67  ARG67       0.0489
     71  CD        40.1320   24.5810   17.2790 C.3    67  ARG67       0.2205
     72  NE        41.1260   24.7960   18.3330 N.pl3  67  ARG67      -0.0865
     73  CZ        41.1920   25.8600   19.1360 C.cat  67  ARG67       0.5346
     74  NH1       40.3240   26.8680   19.0400 N.pl3  67  ARG67       0.1354
     75  NH2       42.1440   25.9030   20.0730 N.pl3  67  ARG67       0.1354
     76  N         37.8690   20.0750   19.8520 N.am   68  VAL68      -0.1980
     77  CA        38.0420   18.6530   20.0570 C.3    68  VAL68       0.1595
     78  C         36.7200   17.9100   19.9030 C.2    68  VAL68       0.2287
     79  O         36.6730   16.8820   19.2230 O.2    68  VAL68      -0.2864
     80  CB        38.6740   18.3810   21.4350 C.3    68  VAL68       0.0276
     81  CG1       38.7730   16.8860   21.6710 C.3    68  VAL68       0.0022
     82  CG2       40.0710   19.0290   21.4850 C.3    68  VAL68       0.0022
     83  N         35.9580   17.8410   16.1960 N.3    71  GLY71      -0.1210
     84  CA        36.8040   16.8720   15.4900 C.3    71  GLY71       0.1956
     85  C         36.3000   15.4590   15.7180 C.2    71  GLY71       0.2611
     86  O         36.1900   14.6590   14.7690 O.2    71  GLY71      -0.2717
     87  N         35.9700   15.1520   16.9700 N.am   72  ALA72      -0.1979
     88  CA        35.3730   13.8500   17.3020 C.3    72  ALA72       0.1597
     89  C         34.0640   13.6290   16.5470 C.2    72  ALA72       0.2287
     90  O         33.8210   12.5460   15.9990 O.2    72  ALA72      -0.2864
     91  CB        35.1430   13.7340   18.7960 C.3    72  ALA72       0.0319
     92  N         44.2640   14.7700   11.2740 N.3    92  LEU92      -0.1245
     93  CA        44.3990   14.9360   12.7190 C.3    92  LEU92       0.1561
     94  C         45.7550   14.4170   13.2020 C.2    92  LEU92       0.2260
     95  O         46.3600   15.0050   14.0940 O.2    92  LEU92      -0.2867
     96  CB        43.2660   14.1940   13.4470 C.3    92  LEU92       0.0270
     97  CG        41.9310   14.9430   13.3990 C.3    92  LEU92       0.0019
     98  CD1       40.7670   13.9700   13.6750 C.3    92  LEU92       0.0001
     99  CD2       41.9600   16.0680   14.4390 C.3    92  LEU92       0.0001
    100  N         48.3460   17.0020   12.4440 N.3    95  GLN95      -0.1231
    101  CA        48.2490   18.0830   13.4110 C.3    95  GLN95       0.1698
    102  C         48.9000   17.7330   14.7460 C.2    95  GLN95       0.2592
    103  O         49.5160   18.5960   15.3720 O.2    95  GLN95      -0.2718
    104  CB        46.7850   18.5000   13.6200 C.3    95  GLN95       0.0381
    105  CG        46.2040   19.1220   12.3680 C.3    95  GLN95       0.0905
    106  CD        44.7170   19.4000   12.4790 C.2    95  GLN95       0.2608
    107  OE1       43.9530   18.5580   12.9380 O.2    95  GLN95      -0.2717
    108  NE2       44.3010   20.5790   12.0310 N.am   95  GLN95      -0.0878
    109  N         48.7500   16.4920   15.1950 N.am   96  HIS96      -0.1976
    110  CA        49.3020   16.1210   16.4890 C.3    96  HIS96       0.1656
    111  C         50.7750   15.7860   16.4150 C.2    96  HIS96       0.2291
    112  O         51.4670   15.8730   17.4230 O.2    96  HIS96      -0.2864
    113  CB        48.4920   14.9770   17.1250 C.3    96  HIS96       0.0771
    114  CG        47.1350   15.4120   17.6020 C.ar   96  HIS96       0.0820
    115  ND1       46.0790   15.6280   16.7400 N.ar   96  HIS96      -0.2267
    116  CD2       46.7040   15.7840   18.8300 C.ar   96  HIS96       0.1154
    117  CE1       45.0570   16.1220   17.4210 C.ar   96  HIS96       0.1986
    118  NE2       45.4100   16.2310   18.6930 N.ar   96  HIS96      -0.2212
    119  N         52.8120   18.7320   17.2720 N.3    99  ILE99      -0.1245
    120  CA        52.6980   19.1250   18.6830 C.3    99  ILE99       0.1561
    121  C         53.5750   18.2320   19.5750 C.2    99  ILE99       0.2260
    122  O         53.3580   17.0170   19.6660 O.2    99  ILE99      -0.2867
    123  CB        51.2290   18.9750   19.1650 C.3    99  ILE99       0.0252
    124  CG1       50.2950   19.8140   18.2920 C.3    99  ILE99       0.0019
    125  CG2       51.1060   19.3700   20.6300 C.3    99  ILE99       0.0019
    126  CD1       48.8330   19.4190   18.4080 C.3    99  ILE99       0.0001
    127  N         54.8860   16.2220   22.6420 N.3   101  GLY101     -0.1210
    128  CA        54.3470   15.6170   23.8560 C.3   101  GLY101      0.1956
    129  C         53.0420   14.8590   23.6910 C.2   101  GLY101      0.2611
    130  O         52.4200   14.4630   24.6820 O.2   101  GLY101     -0.2717
    131  N         52.6090   14.6700   22.4460 N.am  102  VAL102     -0.1979
    132  CA        51.4510   13.8150   22.1720 C.3   102  VAL102      0.1595
    133  C         51.9290   12.3880   21.9340 C.2   102  VAL102      0.2287
    134  O         52.6660   12.1290   20.9780 O.2   102  VAL102     -0.2864
    135  CB        50.6430   14.3010   20.9400 C.3   102  VAL102      0.0276
    136  CG1       49.4250   13.3850   20.7180 C.3   102  VAL102      0.0022
    137  CG2       50.1630   15.7280   21.1620 C.3   102  VAL102      0.0022
    138  N         48.5050    8.4450   25.1830 N.3   106  ALA106     -0.1231
    139  CA        47.6510    9.5680   25.5590 C.3   106  ALA106      0.1694
    140  C         46.4600    9.6810   24.6080 C.2   106  ALA106      0.2591
    141  O         45.3450    9.9710   25.0570 O.2   106  ALA106     -0.2718
    142  CB        48.4560   10.8620   25.5700 C.3   106  ALA106      0.0304
    143  N         46.6940    9.4560   23.3130 N.am  107  VAL107     -0.1980
    144  CA        45.6080    9.4880   22.3200 C.3   107  VAL107      0.1595
    145  C         44.5730    8.4220   22.6600 C.2   107  VAL107      0.2287
    146  O         43.3640    8.6940   22.6690 O.2   107  VAL107     -0.2864
    147  CB        46.1450    9.3230   20.8740 C.3   107  VAL107      0.0276
    148  CG1       44.9820    9.1030   19.8690 C.3   107  VAL107      0.0022
    149  CG2       46.8970   10.5870   20.4810 C.3   107  VAL107      0.0022
    150  N         42.4970    9.6220   25.6180 N.3   110  LEU110     -0.1231
    151  CA        41.4650   10.5970   25.2580 C.3   110  LEU110      0.1693
    152  C         40.2880    9.9070   24.5560 C.2   110  LEU110      0.2592
    153  O         39.1190   10.1860   24.8750 O.2   110  LEU110     -0.2718
    154  CB        42.0400   11.7360   24.4020 C.3   110  LEU110      0.0284
    155  CG        41.2700   13.0510   24.6140 C.3   110  LEU110      0.0019
    156  CD1       42.1850   14.2630   24.3840 C.3   110  LEU110      0.0001
    157  CD2       40.0810   13.0760   23.6800 C.3   110  LEU110      0.0001
    158  N         40.5990    8.9820   23.6620 N.am  111  SER111     -0.1952
    159  CA        39.5150    8.2880   22.9650 C.3   111  SER111      0.1924
    160  C         38.6570    7.4900   23.9580 C.2   111  SER111      0.2314
    161  O         37.4240    7.4060   23.8070 O.2   111  SER111     -0.2863
    162  CB        40.0760    7.3620   21.8700 C.3   111  SER111      0.2116
    163  OG        40.7040    6.2030   22.4140 O.3   111  SER111     -0.2180
    164  N         36.2580    9.7630   25.7660 N.3   114  ILE114     -0.1245
    165  CA        35.0650   10.0400   24.9640 C.3   114  ILE114      0.1561
    166  C         34.0170    8.9460   25.2170 C.2   114  ILE114      0.2260
    167  O         32.8620    9.2410   25.5700 O.2   114  ILE114     -0.2867
    168  CB        35.4200   10.1540   23.4600 C.3   114  ILE114      0.0252
    169  CG1       36.3110   11.3870   23.2390 C.3   114  ILE114      0.0019
    170  CG2       34.1510   10.3130   22.6090 C.3   114  ILE114      0.0019
    171  CD1       36.8370   11.5150   21.7890 C.3   114  ILE114      0.0001
    172  N         39.6990    5.0660   15.7070 N.3   137  ILE137     -0.1245
    173  CA        39.9900    6.5010   15.6980 C.3   137  ILE137      0.1561
    174  C         41.3540    6.7910   16.3430 C.2   137  ILE137      0.2260
    175  O         42.1550    7.5310   15.7800 O.2   137  ILE137     -0.2867
    176  CB        38.8330    7.2930   16.3580 C.3   137  ILE137      0.0252
    177  CG1       37.6480    7.3190   15.3750 C.3   137  ILE137      0.0019
    178  CG2       39.2710    8.7350   16.6780 C.3   137  ILE137      0.0019
    179  CD1       36.3860    7.9550   15.9190 C.3   137  ILE137      0.0001
    180  N         44.6510    8.6870   14.6580 N.3   141  ILE141     -0.1245
    181  CA        45.1750    9.9460   15.1840 C.3   141  ILE141      0.1561
    182  C         46.5750    9.7560   15.7630 C.2   141  ILE141      0.2260
    183  O         47.4280   10.6300   15.6430 O.2   141  ILE141     -0.2867
    184  CB        44.2430   10.5410   16.2500 C.3   141  ILE141      0.0252
    185  CG1       42.9080   10.9300   15.5810 C.3   141  ILE141      0.0019
    186  CG2       44.8900   11.7490   16.8900 C.3   141  ILE141      0.0019
    187  CD1       41.8550   11.4550   16.5530 C.3   141  ILE141      0.0001
@<TRIPOS>BOND
     1    92    93    1
     2   108   106   am
     3   105   106    1
     4   105   104    1
     5   100   101    1
     6   106   107    2
     7    93    94    1
     8    93    96    1
     9    94    95    2
    10    97    96    1
    11    97    98    1
    12    97    99    1
    13   101   104    1
    14   101   102    1
    15   180   181    1
    16   102   109   am
    17   102   103    2
    18    86    85    2
    19   181   182    1
    20   181   184    1
    21   109   110    1
    22   177   179    1
    23   177   176    1
    24    84    85    1
    25    84    83    1
    26   185   184    1
    27   185   187    1
    28   183   182    2
    29   173   172    1
    30   173   174    1
    31   173   176    1
    32    85    87   am
    33   175   174    2
    34    90    89    2
    35   184   186    1
    36   176   178    1
    37   111   110    1
    38   111   112    2
    39   110   113    1
    40    89    88    1
    41   115   117   ar
    42   115   114   ar
    43    87    88    1
    44   113   114    1
    45   119   120    1
    46    71    70    1
    47    71    72    1
    48    88    91    1
    49   117   118   ar
    50   114   116   ar
    51    68    67    2
    52    70    69    1
    53   124   126    1
    54   124   123    1
    55    72    73    2
    56    69    66    1
    57    66    67    1
    58    66    65    1
    59    67    76   am
    60   120   123    1
    61   120   121    1
    62   118   116   ar
    63    74    73    1
    64    73    75    1
    65   123   125    1
    66    79    78    2
    67   121   122    2
    68    76    77    1
    69   148   147    1
    70    78    77    1
    71    77    80    1
    72   149   147    1
    73   136   135    1
    74   147   144    1
    75   135   137    1
    76   135   132    1
    77   134   133    2
    78    63    62    2
    79    80    82    1
    80    80    81    1
    81    59    58    2
    82   171   169    1
    83    64    62   am
    84   162   163    1
    85   162   159    1
    86   133   132    1
    87    62    61    1
    88   132   131    1
    89   144   145    1
    90   144   143    1
    91    57    58    1
    92    57    56    1
    93    57    60    1
    94   131   129   am
    95   170   168    1
    96   127   128    1
    97   145   146    2
    98   159   158    1
    99   159   160    1
   100    54    53    1
   101    54    55    1
   102   169   168    1
   103    60    61    1
   104   143   140   am
   105   168   165    1
   106   158   152   am
   107   157   155    1
   108   129   128    1
   109   129   130    2
   110   161   160    2
   111    53    50    1
   112    55    49    1
   113   156   155    1
   114   154   155    1
   115   154   151    1
   116    37    36    1
   117   152   153    2
   118   152   151    1
   119   140   141    2
   120   140   139    1
   121    46    44   ar
   122    46    48   ar
   123   165   166    1
   124   165   164    1
   125    33    32    2
   126    50    49    1
   127    50    51    1
   128    49    40   am
   129   138   139    1
   130   166   167    2
   131    11    10   ar
   132    11     9   ar
   133    44    43   ar
   134   151   150    1
   135    10     8   ar
   136   139   142    1
   137    48    47   ar
   138    36    35    1
   139    39    40    1
   140    39    42    1
   141    39    38    1
   142    40    41    2
   143     9     7   ar
   144    32    38   am
   145    32    31    1
   146    51    52    2
   147    43    42    1
   148    43    45   ar
   149     8     6   ar
   150    35    34    1
   151    34    31    1
   152    47    45   ar
   153    20    22   ar
   154    20    18   ar
   155    22    21   ar
   156    31    30    1
   157     7     6   ar
   158    18    17   ar
   159     6     5    1
   160    21    19   ar
   161    17    19   ar
   162    17    16    1
   163    29    27    1
   164    28    27    1
   165    16    13    1
   166     1     2    1
   167     5     2    1
   168    27    24    1
   169     2     3    1
   170    13    12    1
   171    13    14    1
   172    24    25    1
   173    24    23    1
   174     3     4    2
   175    14    15    2
   176    25    26    2
