@<TRIPOS>MOLECULE
tmp/2zs7A01.pdb
 145 137 0 0 0
SMALL
GASTEIGER

@<TRIPOS>ATOM
      1  N         37.8540   40.1980   29.3510 N.3    94  VAL94      -0.1245
      2  CA        39.0320   39.4830   28.9090 C.3    94  VAL94       0.1561
      3  C         39.0890   39.8180   27.4290 C.2    94  VAL94       0.2260
      4  O         38.0570   39.8290   26.7680 O.2    94  VAL94      -0.2867
      5  CB        38.8430   37.9460   29.0610 C.3    94  VAL94       0.0252
      6  CG1       39.8220   37.1980   28.1790 C.3    94  VAL94       0.0019
      7  CG2       39.0420   37.5400   30.5100 C.3    94  VAL94       0.0019
      8  N         42.1090   46.1800   27.6960 N.3    98  LYS98      -0.1231
      9  CA        42.4130   46.9200   28.9200 C.3    98  LYS98       0.1693
     10  C         43.8670   46.8350   29.3690 C.2    98  LYS98       0.2592
     11  O         44.4250   47.8300   29.8330 O.2    98  LYS98      -0.2718
     12  CB        41.5140   46.4530   30.0660 C.3    98  LYS98       0.0285
     13  CG        41.4440   44.9550   30.1830 C.3    98  LYS98       0.0035
     14  CD        40.9030   44.5030   31.5080 C.3    98  LYS98       0.0206
     15  CE        40.8750   42.9830   31.5410 C.3    98  LYS98       0.1093
     16  NZ        42.1890   42.4020   31.1250 N.3    98  LYS98      -0.1314
     17  N         44.4890   45.6650   29.2450 N.am   99  SER99      -0.1952
     18  CA        45.8840   45.5340   29.6700 C.3    99  SER99       0.1924
     19  C         46.7860   46.4550   28.8540 C.2    99  SER99       0.2314
     20  O         47.7070   47.0730   29.3860 O.2    99  SER99      -0.2863
     21  CB        46.3650   44.0940   29.5260 C.3    99  SER99       0.2116
     22  OG        45.4450   43.1880   30.1080 O.3    99  SER99      -0.2180
     23  N         45.9640   39.9540   38.4130 N.3   124  ASP124     -0.1239
     24  CA        46.3610   38.5710   38.1400 C.3   124  ASP124      0.1674
     25  C         47.0280   37.9600   39.3630 C.2   124  ASP124      0.2266
     26  O         46.6330   36.9000   39.8420 O.2   124  ASP124     -0.2867
     27  CB        47.3640   38.5250   36.9850 C.3   124  ASP124      0.1410
     28  CG        46.7050   38.6020   35.6350 C.2   124  ASP124      0.3668
     29  OD1       47.3920   38.9870   34.6650 O.co2 124  ASP124     -0.2456
     30  OD2       45.5070   38.2660   35.5380 O.co2 124  ASP124     -0.2456
     31  N         44.9530   36.3480   42.1120 N.3   127  LEU127     -0.1245
     32  CA        44.0860   35.1930   41.9530 C.3   127  LEU127      0.1561
     33  C         44.5770   34.1970   42.9990 C.2   127  LEU127      0.2260
     34  O         45.7070   34.3030   43.4750 O.2   127  LEU127     -0.2867
     35  CB        44.2470   34.5740   40.5600 C.3   127  LEU127      0.0270
     36  CG        43.5870   35.3130   39.3950 C.3   127  LEU127      0.0019
     37  CD1       44.3040   34.9850   38.0870 C.3   127  LEU127      0.0001
     38  CD2       42.0990   34.9450   39.3420 C.3   127  LEU127      0.0001
     39  N         37.8610   31.0230   37.0740 N.3   142  LYS142     -0.1231
     40  CA        39.0550   31.8510   37.1720 C.3   142  LYS142      0.1693
     41  C         38.7880   33.1910   36.5060 C.2   142  LYS142      0.2592
     42  O         38.6370   33.2760   35.2920 O.2   142  LYS142     -0.2718
     43  CB        40.2160   31.1400   36.4870 C.3   142  LYS142      0.0285
     44  CG        41.5790   31.5990   36.9160 C.3   142  LYS142      0.0035
     45  CD        42.5910   30.5610   36.4800 C.3   142  LYS142      0.0206
     46  CE        43.9640   30.8400   37.0150 C.3   142  LYS142      0.1093
     47  NZ        44.8100   29.6500   36.7730 N.3   142  LYS142     -0.1314
     48  N         38.7340   34.2420   37.3060 N.am  143  GLY143     -0.1957
     49  CA        38.4550   35.5520   36.7580 C.3   143  GLY143      0.1869
     50  C         37.2020   36.0980   37.4080 C.2   143  GLY143      0.2309
     51  O         36.9330   37.2980   37.3380 O.2   143  GLY143     -0.2863
     52  N         39.5280   35.5780   43.3590 N.3   148  TYR148     -0.1241
     53  CA        40.5990   36.4500   43.8180 C.3   148  TYR148      0.1605
     54  C         40.6220   36.5780   45.3340 C.2   148  TYR148      0.2264
     55  O         39.6090   36.4000   46.0010 O.2   148  TYR148     -0.2867
     56  CB        40.4560   37.8620   43.2400 C.3   148  TYR148      0.0534
     57  CG        40.5500   37.9730   41.7320 C.ar  148  TYR148     -0.0201
     58  CD1       39.4400   37.7310   40.9240 C.ar  148  TYR148     -0.0009
     59  CD2       41.7450   38.3460   41.1180 C.ar  148  TYR148     -0.0009
     60  CE1       39.5150   37.8610   39.5440 C.ar  148  TYR148      0.0417
     61  CE2       41.8350   38.4800   39.7400 C.ar  148  TYR148      0.0417
     62  CZ        40.7160   38.2360   38.9540 C.ar  148  TYR148      0.1957
     63  OH        40.7980   38.3610   37.5790 O.3   148  TYR148     -0.2866
     64  N         51.6220   36.5550   38.9990 N.3   172  TYR172     -0.1241
     65  CA        50.9610   35.4700   38.2930 C.3   172  TYR172      0.1605
     66  C         51.6980   35.1440   36.9930 C.2   172  TYR172      0.2264
     67  O         52.2060   36.0320   36.3190 O.2   172  TYR172     -0.2867
     68  CB        49.5230   35.8670   37.9770 C.3   172  TYR172      0.0534
     69  CG        48.7070   34.7940   37.2920 C.ar  172  TYR172     -0.0201
     70  CD1       48.1130   33.7630   38.0230 C.ar  172  TYR172     -0.0009
     71  CD2       48.5090   34.8220   35.9120 C.ar  172  TYR172     -0.0009
     72  CE1       47.3340   32.7930   37.3950 C.ar  172  TYR172      0.0417
     73  CE2       47.7360   33.8550   35.2710 C.ar  172  TYR172      0.0417
     74  CZ        47.1470   32.8470   36.0160 C.ar  172  TYR172      0.1957
     75  OH        46.3520   31.9150   35.3820 O.3   172  TYR172     -0.2866
     76  N         51.3040   33.6360   33.2510 N.3   174  HIS174     -0.1241
     77  CA        50.3390   33.2290   32.2410 C.3   174  HIS174      0.1621
     78  C         50.8560   31.9910   31.5210 C.2   174  HIS174      0.2264
     79  O         50.0830   31.2240   30.9420 O.2   174  HIS174     -0.2867
     80  CB        50.0720   34.3600   31.2450 C.3   174  HIS174      0.0745
     81  CG        49.1300   35.4070   31.7580 C.ar  174  HIS174      0.0817
     82  ND1       47.7780   35.4250   31.8400 N.ar  174  HIS174     -0.2268
     83  CD2       49.5610   36.6060   32.2870 C.ar  174  HIS174      0.1154
     84  CE1       47.4200   36.6230   32.4110 C.ar  174  HIS174      0.1986
     85  NE2       48.5140   37.3170   32.6710 N.ar  174  HIS174     -0.2212
     86  N         49.9620   29.3660   33.9670 N.3   177  TYR177     -0.1241
     87  CA        48.5600   29.4980   34.3440 C.3   177  TYR177      0.1605
     88  C         48.3920   29.5130   35.8650 C.2   177  TYR177      0.2264
     89  O         47.3220   29.1780   36.3810 O.2   177  TYR177     -0.2867
     90  CB        47.7680   28.3280   33.7500 C.3   177  TYR177      0.0534
     91  CG        46.2620   28.4800   33.7810 C.ar  177  TYR177     -0.0201
     92  CD1       45.6410   29.5570   33.1560 C.ar  177  TYR177     -0.0009
     93  CD2       45.4530   27.5190   34.3960 C.ar  177  TYR177     -0.0009
     94  CE1       44.2560   29.6770   33.1330 C.ar  177  TYR177      0.0417
     95  CE2       44.0620   27.6310   34.3790 C.ar  177  TYR177      0.0417
     96  CZ        43.4720   28.7130   33.7420 C.ar  177  TYR177      0.1957
     97  OH        42.0980   28.8330   33.6870 O.3   177  TYR177     -0.2866
     98  N         42.4860   45.0570   36.0330 N.3   197  GLY197     -0.1210
     99  CA        41.9330   43.7280   36.2160 C.3   197  GLY197      0.1956
    100  C         40.4630   43.6550   35.8490 C.2   197  GLY197      0.2611
    101  O         39.8150   44.6840   35.6570 O.2   197  GLY197     -0.2717
    102  N         39.9330   42.4370   35.7730 N.am  198  LEU198     -0.1979
    103  CA        38.5370   42.1960   35.4070 C.3   198  LEU198      0.1596
    104  C         37.4720   42.8560   36.2690 C.2   198  LEU198      0.2287
    105  O         36.6100   43.5730   35.7520 O.2   198  LEU198     -0.2864
    106  CB        38.2570   40.6910   35.3630 C.3   198  LEU198      0.0297
    107  CG        39.0290   39.9080   34.2900 C.3   198  LEU198      0.0022
    108  CD1       38.9050   38.4160   34.5430 C.3   198  LEU198      0.0001
    109  CD2       38.5120   40.2820   32.9160 C.3   198  LEU198      0.0001
    110  N         38.4990   37.5220   21.1540 N.3   230  TYR230     -0.1241
    111  CA        38.9360   36.4710   22.0480 C.3   230  TYR230      0.1605
    112  C         39.3390   35.2230   21.2720 C.2   230  TYR230      0.2264
    113  O         40.4580   34.7480   21.4170 O.2   230  TYR230     -0.2867
    114  CB        37.8580   36.1350   23.0800 C.3   230  TYR230      0.0534
    115  CG        38.2150   34.9340   23.9230 C.ar  230  TYR230     -0.0201
    116  CD1       39.1650   35.0280   24.9330 C.ar  230  TYR230     -0.0009
    117  CD2       37.6780   33.6870   23.6400 C.ar  230  TYR230     -0.0009
    118  CE1       39.5830   33.9010   25.6450 C.ar  230  TYR230      0.0417
    119  CE2       38.0880   32.5500   24.3390 C.ar  230  TYR230      0.0417
    120  CZ        39.0430   32.6620   25.3410 C.ar  230  TYR230      0.1957
    121  OH        39.4640   31.5510   26.0420 O.3   230  TYR230     -0.2866
    122  N         35.0830   28.1110   25.9720 N.3   267  ILE267     -0.1245
    123  CA        35.6230   28.7760   27.1480 C.3   267  ILE267      0.1561
    124  C         34.9240   30.1230   27.3030 C.2   267  ILE267      0.2260
    125  O         34.5630   30.5270   28.4120 O.2   267  ILE267     -0.2867
    126  CB        37.1350   29.0100   27.0260 C.3   267  ILE267      0.0252
    127  CG1       37.8570   27.6750   26.8260 C.3   267  ILE267      0.0019
    128  CG2       37.6480   29.6860   28.2850 C.3   267  ILE267      0.0019
    129  CD1       39.3440   27.8030   26.5250 C.3   267  ILE267      0.0001
    130  N         32.7290   30.6060   30.5420 N.3   271  ILE271     -0.1231
    131  CA        33.4610   31.3610   31.5450 C.3   271  ILE271      0.1692
    132  C         33.4920   32.8750   31.3590 C.2   271  ILE271      0.2592
    133  O         32.8270   33.6250   32.0760 O.2   271  ILE271     -0.2718
    134  CB        34.9240   30.8510   31.6370 C.3   271  ILE271      0.0266
    135  CG1       34.9290   29.3610   31.9640 C.3   271  ILE271      0.0019
    136  CG2       35.6970   31.6210   32.7020 C.3   271  ILE271      0.0020
    137  CD1       36.3020   28.7400   31.9310 C.3   271  ILE271      0.0001
    138  N         34.2790   33.3120   30.3900 N.am  272  ASN272     -0.1974
    139  CA        34.4650   34.7250   30.1340 C.3   272  ASN272      0.1688
    140  C         33.2040   35.5270   29.8430 C.2   272  ASN272      0.2292
    141  O         33.0670   36.6530   30.3230 O.2   272  ASN272     -0.2864
    142  CB        35.5000   34.8820   29.0200 C.3   272  ASN272      0.1181
    143  CG        36.8410   34.2710   29.4000 C.2   272  ASN272      0.2629
    144  OD1       37.5700   33.7570   28.5530 O.2   272  ASN272     -0.2716
    145  ND2       37.1710   34.3300   30.6800 N.am  272  ASN272     -0.0877
@<TRIPOS>BOND
     1   110   111    1
     2   112   113    2
     3   112   111    1
     4   111   114    1
     5   114   115    1
     6   117   115   ar
     7   117   119   ar
     8   115   116   ar
     9   119   120   ar
    10   116   118   ar
    11   120   118   ar
    12   120   121    1
    13   122   123    1
    14   129   127    1
    15     4     3    2
    16   127   126    1
    17   126   123    1
    18   126   128    1
    19   123   124    1
    20   124   125    2
    21     3     2    1
    22     8     9    1
    23     6     5    1
    24   144   143    2
    25    19    20    2
    26    19    18    1
    27     2     5    1
    28     2     1    1
    29     9    10    1
    30     9    12    1
    31   142   143    1
    32   142   139    1
    33     5     7    1
    34    17    10   am
    35    17    18    1
    36    10    11    2
    37   143   145   am
    38    21    18    1
    39    21    22    1
    40   140   139    1
    41   140   141    2
    42    12    13    1
    43   139   138    1
    44    13    14    1
    45   138   132   am
    46   130   131    1
    47    79    78    2
    48    16    15    1
    49    80    81    1
    50    80    77    1
    51   132   131    1
    52   132   133    2
    53    14    15    1
    54    78    77    1
    55   131   134    1
    56   134   135    1
    57   134   136    1
    58    81    82   ar
    59    81    83   ar
    60    82    84   ar
    61   137   135    1
    62    77    76    1
    63    83    85   ar
    64    84    85   ar
    65   109   107    1
    66    94    92   ar
    67    94    96   ar
    68    92    91   ar
    69    97    96    1
    70    96    95   ar
    71    90    91    1
    72    90    87    1
    73    91    93   ar
    74    86    87    1
    75   107   108    1
    76   107   106    1
    77    87    88    1
    78    95    93   ar
    79    29    28   ar
    80    73    71   ar
    81    73    74   ar
    82    42    41    2
    83   106   103    1
    84    75    74    1
    85   103   102    1
    86   103   104    1
    87    30    28   ar
    88    28    27    1
    89   101   100    2
    90   105   104    2
    91   102   100   am
    92   100    99    1
    93    88    89    2
    94    71    69   ar
    95    74    72   ar
    96    98    99    1
    97    67    66    2
    98    45    44    1
    99    45    46    1
   100    43    44    1
   101    43    40    1
   102    41    40    1
   103    41    48   am
   104    49    48    1
   105    49    50    1
   106    47    46    1
   107    27    24    1
   108    66    65    1
   109    39    40    1
   110    69    68    1
   111    69    70   ar
   112    51    50    2
   113    72    70   ar
   114    63    62    1
   115    68    65    1
   116    37    36    1
   117    24    23    1
   118    24    25    1
   119    65    64    1
   120    62    60   ar
   121    62    61   ar
   122    38    36    1
   123    25    26    2
   124    36    35    1
   125    60    58   ar
   126    61    59   ar
   127    35    32    1
   128    58    57   ar
   129    59    57   ar
   130    57    56    1
   131    32    31    1
   132    32    33    1
   133    33    34    2
   134    56    53    1
   135    52    53    1
   136    53    54    1
   137    54    55    2
