@<TRIPOS>MOLECULE
tmp/2zsbA00.pdb
 156 147 0 0 0
SMALL
GASTEIGER

@<TRIPOS>ATOM
      1  N          2.4120   45.3070   23.1200 N.3    34  GLY34      -0.1210
      2  CA         2.5590   46.7430   23.1470 C.3    34  GLY34       0.1956
      3  C          3.0100   47.2960   21.8180 C.2    34  GLY34       0.2611
      4  O          3.5370   46.5800   20.9500 O.2    34  GLY34      -0.2717
      5  N          2.8030   48.5940   21.6580 N.am   35  LEU35      -0.1979
      6  CA         3.1830   49.2560   20.4290 C.3    35  LEU35       0.1596
      7  C          4.5930   48.8570   19.9900 C.2    35  LEU35       0.2287
      8  O          5.5360   48.8890   20.7800 O.2    35  LEU35      -0.2864
      9  CB         3.1010   50.7610   20.6280 C.3    35  LEU35       0.0297
     10  CG         3.1180   51.5790   19.3490 C.3    35  LEU35       0.0022
     11  CD1        2.0010   51.1150   18.4300 C.3    35  LEU35       0.0001
     12  CD2        2.9460   53.0470   19.6970 C.3    35  LEU35       0.0001
     13  N         14.0150   49.5990   29.2680 N.3    94  VAL94      -0.1231
     14  CA        12.8030   50.2990   28.8870 C.3    94  VAL94       0.1692
     15  C         12.6530   49.9800   27.4050 C.2    94  VAL94       0.2592
     16  O         13.6480   49.9420   26.6860 O.2    94  VAL94      -0.2718
     17  CB        12.9720   51.8430   29.0740 C.3    94  VAL94       0.0266
     18  CG1       11.9400   52.6060   28.2590 C.3    94  VAL94       0.0020
     19  CG2       12.8240   52.2030   30.5300 C.3    94  VAL94       0.0020
     20  N         11.4300   49.7200   26.9580 N.am   95  ALA95      -0.1966
     21  CA        11.1680   49.4410   25.5450 C.3    95  ALA95       0.1728
     22  C         11.7260   48.1410   24.9690 C.2    95  ALA95       0.2616
     23  O         11.8740   48.0210   23.7530 O.2    95  ALA95      -0.2715
     24  CB        11.6530   50.6150   24.6960 C.3    95  ALA95       0.0334
     25  N         12.0330   47.1640   25.8130 N.am   96  VAL96      -0.1963
     26  CA        12.5540   45.9060   25.2960 C.3    96  VAL96       0.1727
     27  C         11.4260   44.8860   25.1350 C.2    96  VAL96       0.2617
     28  O         11.6260   43.8120   24.5810 O.2    96  VAL96      -0.2715
     29  CB        13.6480   45.3160   26.2120 C.3    96  VAL96       0.0290
     30  CG1       13.0140   44.5800   27.3920 C.3    96  VAL96       0.0023
     31  CG2       14.5330   44.3840   25.4150 C.3    96  VAL96       0.0023
     32  N         10.2410   45.2130   25.6300 N.am   97  GLY97      -0.1940
     33  CA         9.1230   44.3030   25.4790 C.3    97  GLY97       0.2014
     34  C          8.7180   43.5210   26.7100 C.2    97  GLY97       0.2639
     35  O          7.9340   42.5790   26.6150 O.2    97  GLY97      -0.2714
     36  N          9.2390   43.8980   27.8690 N.am   98  LYS98      -0.1963
     37  CA         8.8980   43.2000   29.0950 C.3    98  LYS98       0.1728
     38  C          7.3940   42.9930   29.2270 C.2    98  LYS98       0.2616
     39  O          6.9190   41.8650   29.3700 O.2    98  LYS98      -0.2715
     40  CB         9.3670   43.9950   30.3090 C.3    98  LYS98       0.0311
     41  CG        10.8410   44.2950   30.3520 C.3    98  LYS98       0.0038
     42  CD        11.1770   44.9520   31.6790 C.3    98  LYS98       0.0206
     43  CE        10.4710   46.2790   31.8140 C.3    98  LYS98       0.1093
     44  NZ        11.0420   47.2300   30.8200 N.3    98  LYS98      -0.1314
     45  N          6.6470   44.0930   29.1850 N.am   99  SER99      -0.1950
     46  CA         5.2010   44.0300   29.3460 C.3    99  SER99       0.1924
     47  C          4.5120   43.0370   28.4170 C.2    99  SER99       0.2314
     48  O          3.5600   42.3700   28.8140 O.2    99  SER99      -0.2863
     49  CB         4.5850   45.4270   29.1820 C.3    99  SER99       0.2116
     50  OG         4.9210   46.0070   27.9370 O.3    99  SER99      -0.2180
     51  N          2.6000   39.8730   29.9870 N.3   103  ARG103     -0.1245
     52  CA         1.1620   39.7000   29.7360 C.3   103  ARG103      0.1563
     53  C          0.8830   38.3790   29.0290 C.2   103  ARG103      0.2260
     54  O         -0.0740   37.6790   29.3510 O.2   103  ARG103     -0.2867
     55  CB         0.6010   40.8590   28.8970 C.3   103  ARG103      0.0307
     56  CG         0.3370   42.1330   29.6940 C.3   103  ARG103      0.0489
     57  CD        -0.2790   43.2230   28.8380 C.3   103  ARG103      0.2205
     58  NE         0.5640   43.5320   27.6880 N.pl3 103  ARG103     -0.0865
     59  CZ         1.1710   44.6980   27.4810 C.cat 103  ARG103      0.5346
     60  NH1        1.0340   45.6910   28.3510 N.pl3 103  ARG103      0.1354
     61  NH2        1.9200   44.8710   26.3990 N.pl3 103  ARG103      0.1354
     62  N          6.1100   49.8820   38.3740 N.3   124  ASP124     -0.1239
     63  CA         5.7720   51.2710   38.0300 C.3   124  ASP124      0.1674
     64  C          5.0790   51.9490   39.1900 C.2   124  ASP124      0.2266
     65  O          5.4390   53.0530   39.5900 O.2   124  ASP124     -0.2867
     66  CB         4.8230   51.3240   36.8340 C.3   124  ASP124      0.1410
     67  CG         5.5350   51.2090   35.5180 C.2   124  ASP124      0.3668
     68  OD1        4.8470   51.2470   34.4780 O.co2 124  ASP124     -0.2456
     69  OD2        6.7760   51.0860   35.5210 O.co2 124  ASP124     -0.2456
     70  N          0.6140   56.1580   33.1200 N.3   174  HIS174     -0.1226
     71  CA         1.5560   56.5180   32.0610 C.3   174  HIS174      0.1752
     72  C          1.0490   57.7710   31.3660 C.2   174  HIS174      0.2595
     73  O          1.8050   58.4640   30.6870 O.2   174  HIS174     -0.2718
     74  CB         1.7090   55.3990   31.0280 C.3   174  HIS174      0.0759
     75  CG         2.6340   54.3040   31.4530 C.ar  174  HIS174      0.0818
     76  ND1        3.9860   54.2250   31.4440 N.ar  174  HIS174     -0.2268
     77  CD2        2.1860   53.1130   31.9830 C.ar  174  HIS174      0.1154
     78  CE1        4.3260   53.0010   31.9640 C.ar  174  HIS174      0.1986
     79  NE2        3.2220   52.3480   32.2810 N.ar  174  HIS174     -0.2212
     80  N         -0.2370   58.0560   31.5440 N.am  175  LEU175     -0.1980
     81  CA        -0.8500   59.2310   30.9430 C.3   175  LEU175      0.1596
     82  C         -0.4320   60.4880   31.6860 C.2   175  LEU175      0.2287
     83  O          0.1020   61.4220   31.0930 O.2   175  LEU175     -0.2864
     84  CB        -2.3720   59.1210   30.9770 C.3   175  LEU175      0.0297
     85  CG        -3.0950   60.3540   30.4300 C.3   175  LEU175      0.0022
     86  CD1       -2.8340   60.4820   28.9290 C.3   175  LEU175      0.0001
     87  CD2       -4.5800   60.2470   30.7170 C.3   175  LEU175      0.0001
     88  N          6.8260   42.6280   37.1500 N.3   196  GLU196     -0.1245
     89  CA         7.4930   43.1790   35.9850 C.3   196  GLU196      0.1567
     90  C          8.1700   44.5020   36.2990 C.2   196  GLU196      0.2260
     91  O          7.5500   45.4090   36.8560 O.2   196  GLU196     -0.2867
     92  CB         6.4670   43.3880   34.8940 C.3   196  GLU196      0.0388
     93  CG         7.0220   43.8410   33.5930 C.3   196  GLU196      0.1160
     94  CD         5.9810   44.5710   32.8060 C.2   196  GLU196      0.3649
     95  OE1        4.8120   44.1470   32.9030 O.co2 196  GLU196     -0.2457
     96  OE2        6.3250   45.5520   32.1030 O.co2 196  GLU196     -0.2457
     97  N         12.1220   47.0460   35.5220 N.3   198  LEU198     -0.1245
     98  CA        13.5000   47.2290   35.0820 C.3   198  LEU198      0.1561
     99  C         14.4860   46.6930   36.1050 C.2   198  LEU198      0.2260
    100  O         15.4390   45.9870   35.7750 O.2   198  LEU198     -0.2867
    101  CB        13.8170   48.7200   34.9360 C.3   198  LEU198      0.0270
    102  CG        12.9670   49.6230   34.0590 C.3   198  LEU198      0.0019
    103  CD1       13.1880   51.0570   34.4760 C.3   198  LEU198      0.0001
    104  CD2       13.3200   49.3950   32.5930 C.3   198  LEU198      0.0001
    105  N          9.3810   54.2080   18.8320 N.3   233  ARG233     -0.1245
    106  CA         8.1260   54.2190   19.5750 C.3   233  ARG233      0.1563
    107  C          7.7680   55.6350   20.0300 C.2   233  ARG233      0.2260
    108  O          6.5920   55.9960   20.0900 O.2   233  ARG233     -0.2867
    109  CB         8.2200   53.2870   20.7860 C.3   233  ARG233      0.0307
    110  CG         6.9060   53.0970   21.5180 C.3   233  ARG233      0.0489
    111  CD         7.0380   52.1510   22.7000 C.3   233  ARG233      0.2205
    112  NE         7.8800   52.7180   23.7490 N.pl3 233  ARG233     -0.0865
    113  CZ         8.2710   52.0600   24.8330 C.cat 233  ARG233      0.5346
    114  NH1        7.8990   50.8080   25.0220 N.pl3 233  ARG233      0.1354
    115  NH2        9.0380   52.6570   25.7270 N.pl3 233  ARG233      0.1354
    116  N          4.2520   57.3650   19.1960 N.3   237  MET237     -0.1245
    117  CA         3.3130   57.7940   20.2260 C.3   237  MET237      0.1570
    118  C          2.7340   59.1860   19.9930 C.2   237  MET237      0.2261
    119  O          1.7830   59.5840   20.6680 O.2   237  MET237     -0.2867
    120  CB         3.9660   57.7210   21.6080 C.3   237  MET237      0.0387
    121  CG         4.4230   56.3260   21.9930 C.3   237  MET237      0.0595
    122  SD         4.7560   56.1660   23.7580 S.3   237  MET237     -0.1393
    123  CE         3.6960   54.8300   24.1760 C.3   237  MET237      0.0692
    124  N         -0.5930   57.7460   22.3040 N.3   241  ALA241     -0.1231
    125  CA        -0.5550   58.2860   23.6570 C.3   241  ALA241      0.1694
    126  C         -0.4140   59.8070   23.7540 C.2   241  ALA241      0.2592
    127  O         -1.2390   60.4680   24.3860 O.2   241  ALA241     -0.2718
    128  CB         0.5650   57.6270   24.4340 C.3   241  ALA241      0.0304
    129  N          0.6310   60.3610   23.1440 N.am  242  PHE242     -0.1976
    130  CA         0.8620   61.8020   23.2090 C.3   242  PHE242      0.1639
    131  C         -0.2740   62.6410   22.6380 C.2   242  PHE242      0.2290
    132  O         -0.4930   63.7710   23.0790 O.2   242  PHE242     -0.2864
    133  CB         2.1570   62.1860   22.4820 C.3   242  PHE242      0.0560
    134  CG         3.3830   61.4650   22.9790 C.ar  242  PHE242     -0.0200
    135  CD1        3.3910   60.8270   24.2160 C.ar  242  PHE242     -0.0042
    136  CD2        4.5400   61.4280   22.2010 C.ar  242  PHE242     -0.0042
    137  CE1        4.5290   60.1610   24.6670 C.ar  242  PHE242     -0.0003
    138  CE2        5.6840   60.7650   22.6460 C.ar  242  PHE242     -0.0003
    139  CZ         5.6750   60.1330   23.8790 C.ar  242  PHE242     -0.0000
    140  N         -2.2580   64.1650   28.2730 N.3   247  SER247     -0.1217
    141  CA        -0.9380   63.5730   28.4270 C.3   247  SER247      0.1889
    142  C          0.1060   64.5590   28.9220 C.2   247  SER247      0.2288
    143  O          0.1490   65.7070   28.4810 O.2   247  SER247     -0.2866
    144  CB        -0.4730   62.9650   27.0980 C.3   247  SER247      0.2089
    145  OG         0.8410   62.4380   27.2140 O.3   247  SER247     -0.2183
    146  N          2.7750   64.5460   28.1150 N.3   249  PHE249     -0.1241
    147  CA         3.6910   64.6480   26.9930 C.3   249  PHE249      0.1605
    148  C          3.0210   65.1870   25.7410 C.2   249  PHE249      0.2264
    149  O          3.5970   65.1260   24.6580 O.2   249  PHE249     -0.2867
    150  CB         4.2960   63.2760   26.6810 C.3   249  PHE249      0.0534
    151  CG         5.2480   62.7730   27.7330 C.ar  249  PHE249     -0.0203
    152  CD1        4.8880   61.7360   28.5900 C.ar  249  PHE249     -0.0042
    153  CD2        6.5130   63.3300   27.8560 C.ar  249  PHE249     -0.0042
    154  CE1        5.7810   61.2640   29.5500 C.ar  249  PHE249     -0.0003
    155  CE2        7.4090   62.8670   28.8080 C.ar  249  PHE249     -0.0003
    156  CZ         7.0440   61.8330   29.6570 C.ar  249  PHE249     -0.0000
@<TRIPOS>BOND
     1    11    10    1
     2   105   106    1
     3   116   117    1
     4    10    12    1
     5    10     9    1
     6   106   107    1
     7   106   109    1
     8     7     6    1
     9     7     8    2
    10   118   117    1
    11   118   119    2
    12   107   108    2
    13   117   120    1
    14     6     9    1
    15     6     5    1
    16   109   110    1
    17     4     3    2
    18   110   111    1
    19   120   121    1
    20     5     3   am
    21     3     2    1
    22   121   122    1
    23   136   138   ar
    24   136   134   ar
    25   124   125    1
    26   133   134    1
    27   133   130    1
    28   131   132    2
    29   131   130    1
    30   138   139   ar
    31   111   112    1
    32   134   135   ar
    33     1     2    1
    34   129   130    1
    35   129   126   am
    36   125   126    1
    37   125   128    1
    38   112   113    2
    39    23    22    2
    40   126   127    2
    41   122   123    1
    42   139   137   ar
    43   135   137   ar
    44    28    27    2
    45   149   148    2
    46    24    21    1
    47   113   114    1
    48   113   115    1
    49    22    21    1
    50    22    25   am
    51    27    26    1
    52    27    32   am
    53    26    25    1
    54    26    29    1
    55    31    29    1
    56    33    32    1
    57    33    34    1
    58    21    20    1
    59   148   147    1
    60    29    30    1
    61    61    59    1
    62    35    34    2
    63   150   147    1
    64   150   151    1
    65    16    15    2
    66    34    36   am
    67    20    15   am
    68   147   146    1
    69   144   145    1
    70   144   141    1
    71    15    14    1
    72    59    58    2
    73    59    60    1
    74    58    57    1
    75   151   153   ar
    76   151   152   ar
    77   153   155   ar
    78    36    37    1
    79    50    49    1
    80    18    17    1
    81   140   141    1
    82    47    48    2
    83    47    46    1
    84   141   142    1
    85   143   142    2
    86   152   154   ar
    87   155   156   ar
    88    57    56    1
    89    14    17    1
    90    14    13    1
    91    55    56    1
    92    55    52    1
    93    86    85    1
    94    53    54    2
    95    53    52    1
    96    17    19    1
    97    37    38    1
    98    37    40    1
    99    49    46    1
   100    45    38   am
   101    45    46    1
   102    38    39    2
   103   154   156   ar
   104    52    51    1
   105    40    41    1
   106    41    42    1
   107    85    87    1
   108    85    84    1
   109    73    72    2
   110    44    43    1
   111    81    84    1
   112    81    80    1
   113    81    82    1
   114    74    75    1
   115    74    71    1
   116    83    82    2
   117    72    80   am
   118    72    71    1
   119    76    75   ar
   120    76    78   ar
   121    75    77   ar
   122    42    43    1
   123    78    79   ar
   124    77    79   ar
   125    71    70    1
   126    96    94   ar
   127   104   102    1
   128    94    95   ar
   129    94    93    1
   130    93    92    1
   131   102   103    1
   132   102   101    1
   133    68    67   ar
   134    92    89    1
   135   101    98    1
   136    98    97    1
   137    98    99    1
   138    67    69   ar
   139    67    66    1
   140   100    99    2
   141    89    90    1
   142    89    88    1
   143    90    91    2
   144    66    63    1
   145    63    62    1
   146    63    64    1
   147    64    65    2
