@<TRIPOS>MOLECULE
tmp/2zscB00.pdb
 151 143 0 0 0
SMALL
GASTEIGER

@<TRIPOS>ATOM
      1  N          3.7630    2.4150  -16.6190 N.3    13  ASN13      -0.1240
      2  CA         3.4490    3.7870  -16.2440 C.3    13  ASN13       0.1653
      3  C          4.2360    4.8110  -17.0660 C.2    13  ASN13       0.2266
      4  O          5.0100    4.4490  -17.9620 O.2    13  ASN13      -0.2867
      5  CB         3.5700    4.0140  -14.7210 C.3    13  ASN13       0.1155
      6  CG         5.0170    4.0680  -14.2290 C.2    13  ASN13       0.2627
      7  OD1        5.9580    4.2290  -14.9980 O.2    13  ASN13      -0.2716
      8  ND2        5.1890    3.9490  -12.9180 N.am   13  ASN13      -0.0877
      9  N          6.7080    6.6560  -16.3930 N.3    15  LEU15      -0.1245
     10  CA         8.1550    6.5460  -16.2400 C.3    15  LEU15       0.1561
     11  C          8.7110    5.3350  -16.9980 C.2    15  LEU15       0.2260
     12  O          9.9190    5.0990  -16.9770 O.2    15  LEU15      -0.2867
     13  CB         8.5200    6.4460  -14.7550 C.3    15  LEU15       0.0270
     14  CG         8.2190    7.6400  -13.8410 C.3    15  LEU15       0.0019
     15  CD1        8.2180    7.2340  -12.3830 C.3    15  LEU15       0.0001
     16  CD2        9.2300    8.7570  -14.0760 C.3    15  LEU15       0.0001
     17  N          8.1050    2.3300  -16.1320 N.3    17  SER17      -0.1217
     18  CA         8.1660    1.2130  -15.2000 C.3    17  SER17       0.1889
     19  C          7.1640    0.1520  -15.6400 C.2    17  SER17       0.2288
     20  O          6.1300    0.4640  -16.2370 O.2    17  SER17      -0.2866
     21  CB         7.8650    1.6460  -13.7780 C.3    17  SER17       0.2089
     22  OG         8.8220    2.5870  -13.3560 O.3    17  SER17      -0.2183
     23  N          7.4550   -5.7360   -9.8030 N.3    33  TYR33      -0.1241
     24  CA         7.4870   -4.3400  -10.2170 C.3    33  TYR33       0.1605
     25  C          8.9070   -3.9720  -10.6020 C.2    33  TYR33       0.2264
     26  O          9.8170   -4.1160   -9.8010 O.2    33  TYR33      -0.2867
     27  CB         7.0080   -3.4550   -9.0650 C.3    33  TYR33       0.0534
     28  CG         6.5990   -2.0740   -9.5120 C.ar   33  TYR33      -0.0201
     29  CD1        5.2510   -1.7430   -9.6570 C.ar   33  TYR33      -0.0009
     30  CD2        7.5560   -1.1050   -9.8140 C.ar   33  TYR33      -0.0009
     31  CE1        4.8670   -0.4810  -10.0790 C.ar   33  TYR33       0.0417
     32  CE2        7.1790    0.1610  -10.2360 C.ar   33  TYR33       0.0417
     33  CZ         5.8290    0.4660  -10.3610 C.ar   33  TYR33       0.1957
     34  OH         5.4420    1.7260  -10.7800 O.3    33  TYR33      -0.2866
     35  N         11.0260   -0.8100  -11.6620 N.3    35  SER35      -0.1217
     36  CA        11.0740    0.6430  -11.7730 C.3    35  SER35       0.1889
     37  C         12.1690    1.0820  -12.7180 C.2    35  SER35       0.2288
     38  O         13.2970    0.5760  -12.6500 O.2    35  SER35      -0.2866
     39  CB        11.2960    1.3040  -10.4190 C.3    35  SER35       0.2089
     40  OG        11.3540    2.7090  -10.5910 O.3    35  SER35      -0.2183
     41  N         13.2060    4.1420  -12.7220 N.3    37  VAL37      -0.1231
     42  CA        13.9010    5.2090  -12.0030 C.3    37  VAL37       0.1692
     43  C         14.2720    4.7620  -10.5930 C.2    37  VAL37       0.2593
     44  O         13.7060    3.7960  -10.0490 O.2    37  VAL37      -0.2718
     45  CB        13.0750    6.5190  -11.9220 C.3    37  VAL37       0.0266
     46  CG1       12.8060    7.0940  -13.3070 C.3    37  VAL37       0.0020
     47  CG2       11.7690    6.2930  -11.1770 C.3    37  VAL37       0.0020
     48  N         15.2120    5.4870   -9.9950 N.am   38  GLY38      -0.1942
     49  CA        15.7630    5.1040   -8.7170 C.3    38  GLY38       0.2014
     50  C         16.8820    4.1120   -8.9370 C.2    38  GLY38       0.2639
     51  O         17.0240    3.5280  -10.0130 O.2    38  GLY38      -0.2714
     52  N         17.6700    3.9060   -7.9010 N.am   39  ASP39      -0.1957
     53  CA        18.8420    3.0680   -8.0280 C.3    39  ASP39       0.1840
     54  C         18.4880    1.6050   -7.7480 C.2    39  ASP39       0.2621
     55  O         19.0320    0.9780   -6.8410 O.2    39  ASP39      -0.2715
     56  CB        19.9670    3.6110   -7.1440 C.3    39  ASP39       0.1450
     57  CG        20.3080    5.0700   -7.4610 C.2    39  ASP39       0.3671
     58  OD1       20.2280    5.4710   -8.6480 O.co2  39  ASP39      -0.2456
     59  OD2       20.6440    5.8170   -6.5160 O.co2  39  ASP39      -0.2456
     60  N         17.5390    1.0930   -8.5350 N.am   40  VAL40      -0.1977
     61  CA        17.1360   -0.3170   -8.5070 C.3    40  VAL40       0.1596
     62  C         17.2270   -0.8730   -9.9290 C.2    40  VAL40       0.2287
     63  O         17.0400   -0.1350  -10.9000 O.2    40  VAL40      -0.2864
     64  CB        15.7080   -0.5220   -7.9160 C.3    40  VAL40       0.0276
     65  CG1       15.7260   -0.2980   -6.4150 C.3    40  VAL40       0.0022
     66  CG2       14.6900    0.4040   -8.5720 C.3    40  VAL40       0.0022
     67  N         11.6830   -2.2720   -1.1780 N.3    68  TRP68      -0.1241
     68  CA        12.8950   -2.1810   -1.9720 C.3    68  TRP68       0.1605
     69  C         14.1180   -2.2580   -1.0650 C.2    68  TRP68       0.2264
     70  O         14.3300   -1.3770   -0.2160 O.2    68  TRP68      -0.2867
     71  CB        12.9720   -0.8280   -2.6750 C.3    68  TRP68       0.0550
     72  CG        11.7430   -0.3020   -3.3300 C.ar   68  TRP68       0.0003
     73  CD1       10.8330    0.5360   -2.7780 C.ar   68  TRP68       0.0946
     74  CD2       11.3440   -0.4880   -4.6980 C.ar   68  TRP68       0.0152
     75  NE1        9.8660    0.8690   -3.7000 N.ar   68  TRP68      -0.2442
     76  CE2       10.1520    0.2450   -4.8880 C.ar   68  TRP68       0.0810
     77  CE3       11.8670   -1.2180   -5.7740 C.ar   68  TRP68       0.0012
     78  CZ2        9.4850    0.2810   -6.1160 C.ar   68  TRP68       0.0191
     79  CZ3       11.2050   -1.1840   -6.9890 C.ar   68  TRP68       0.0001
     80  CH2       10.0190   -0.4480   -7.1450 C.ar   68  TRP68       0.0015
     81  N         19.6450    0.9700   -0.9230 N.3    73  ILE73      -0.1245
     82  CA        18.2440    1.3550   -0.7130 C.3    73  ILE73       0.1561
     83  C         17.5690    0.4770    0.3330 C.2    73  ILE73       0.2260
     84  O         17.7040   -0.7490    0.2930 O.2    73  ILE73      -0.2867
     85  CB        17.4500    1.2240   -2.0530 C.3    73  ILE73       0.0252
     86  CG1       18.0150    2.1450   -3.1470 C.3    73  ILE73       0.0019
     87  CG2       15.9520    1.4470   -1.8550 C.3    73  ILE73       0.0019
     88  CD1       17.9570    3.6310   -2.8520 C.3    73  ILE73       0.0001
     89  N         13.6680    0.9370    1.4300 N.3    75  SER75      -0.1217
     90  CA        12.4900    1.7790    1.3210 C.3    75  SER75       0.1889
     91  C         11.2670    0.9260    0.9880 C.2    75  SER75       0.2288
     92  O         11.3760   -0.2820    0.8000 O.2    75  SER75      -0.2866
     93  CB        12.7200    2.8440    0.2470 C.3    75  SER75       0.2089
     94  OG        12.7910    2.2360   -1.0340 O.3    75  SER75      -0.2183
     95  N          7.3180    1.4780   -1.1980 N.3    77  THR77      -0.1218
     96  CA         6.3140    2.3090   -1.8390 C.3    77  THR77       0.1862
     97  C          4.9670    1.6390   -1.7230 C.2    77  THR77       0.2287
     98  O          4.8630    0.4130   -1.8630 O.2    77  THR77      -0.2866
     99  CB         6.6310    2.5150   -3.3220 C.3    77  THR77       0.1770
    100  OG1        7.9390    3.0770   -3.4350 O.3    77  THR77      -0.2211
    101  CG2        5.6360    3.4300   -3.9910 C.3    77  THR77       0.0375
    102  N          1.0780    2.2020   -3.5770 N.3    79  TRP79      -0.1241
    103  CA         0.2170    2.8740   -4.5420 C.3    79  TRP79       0.1605
    104  C         -1.2410    2.6670   -4.1480 C.2    79  TRP79       0.2264
    105  O         -1.6410    1.5560   -3.7880 O.2    79  TRP79      -0.2867
    106  CB         0.3900    2.2820   -5.9360 C.3    79  TRP79       0.0550
    107  CG         1.7150    2.4990   -6.6230 C.ar   79  TRP79       0.0003
    108  CD1        1.9650    3.3730   -7.6600 C.ar   79  TRP79       0.0946
    109  CD2        2.9660    1.8000   -6.3930 C.ar   79  TRP79       0.0152
    110  NE1        3.2800    3.2790   -8.0600 N.ar   79  TRP79      -0.2442
    111  CE2        3.9090    2.3160   -7.3160 C.ar   79  TRP79       0.0810
    112  CE3        3.3800    0.7860   -5.5050 C.ar   79  TRP79       0.0012
    113  CZ2        5.2350    1.8520   -7.3780 C.ar   79  TRP79       0.0191
    114  CZ3        4.7040    0.3450   -5.5570 C.ar   79  TRP79       0.0001
    115  CH2        5.6090    0.8700   -6.4990 C.ar   79  TRP79       0.0015
    116  N          1.0470    7.6720   -4.8890 N.3    95  TRP95      -0.1241
    117  CA         1.9100    6.7630   -4.1520 C.3    95  TRP95       0.1605
    118  C          2.6890    7.4630   -3.0590 C.2    95  TRP95       0.2264
    119  O          2.8910    8.6900   -3.1110 O.2    95  TRP95      -0.2867
    120  CB         2.8490    6.0020   -5.1010 C.3    95  TRP95       0.0550
    121  CG         3.6610    6.8180   -6.0600 C.ar   95  TRP95       0.0003
    122  CD1        3.4620    6.9290   -7.4100 C.ar   95  TRP95       0.0946
    123  CD2        4.8650    7.5590   -5.7730 C.ar   95  TRP95       0.0152
    124  NE1        4.4440    7.7090   -7.9720 N.ar   95  TRP95      -0.2442
    125  CE2        5.2930    8.1390   -6.9890 C.ar   95  TRP95       0.0810
    126  CE3        5.5800    7.8430   -4.6000 C.ar   95  TRP95       0.0012
    127  CZ2        6.4380    8.9420   -7.0770 C.ar   95  TRP95       0.0191
    128  CZ3        6.7260    8.6360   -4.6930 C.ar   95  TRP95       0.0001
    129  CH2        7.1280    9.1860   -5.9190 C.ar   95  TRP95       0.0015
    130  N          6.3110    6.8450   -0.9770 N.3    97  LEU97      -0.1245
    131  CA         7.5810    6.1460   -0.9110 C.3    97  LEU97       0.1561
    132  C          8.3100    6.5320    0.3840 C.2    97  LEU97       0.2260
    133  O          8.8260    7.6460    0.5140 O.2    97  LEU97      -0.2867
    134  CB         8.3900    6.4360   -2.1740 C.3    97  LEU97       0.0270
    135  CG         9.8840    6.1350   -2.1990 C.3    97  LEU97       0.0019
    136  CD1       10.1670    4.6980   -1.8270 C.3    97  LEU97       0.0001
    137  CD2       10.4500    6.4370   -3.5800 C.3    97  LEU97       0.0001
    138  N         11.3130    5.9530    3.0380 N.3    99  SER99      -0.1217
    139  CA        12.6830    5.4800    3.0870 C.3    99  SER99       0.1889
    140  C         13.1360    5.3140    4.5220 C.2    99  SER99       0.2288
    141  O         12.7540    6.0800    5.4090 O.2    99  SER99      -0.2866
    142  CB        13.6290    6.4450    2.3680 C.3    99  SER99       0.2089
    143  OG        13.3760    6.4680    0.9720 O.3    99  SER99      -0.2183
    144  N          1.2950    7.9820  -10.4270 N.3   115  ASP115     -0.1239
    145  CA         1.5730    7.1310  -11.5800 C.3   115  ASP115      0.1674
    146  C          0.2770    6.7340  -12.2510 C.2   115  ASP115      0.2266
    147  O         -0.7010    6.3560  -11.5850 O.2   115  ASP115     -0.2867
    148  CB         2.2600    5.8200  -11.1580 C.3   115  ASP115      0.1410
    149  CG         3.7150    5.9930  -10.7300 C.2   115  ASP115      0.3668
    150  OD1        4.3540    7.0490  -10.9650 O.co2 115  ASP115     -0.2456
    151  OD2        4.2160    5.0220  -10.1280 O.co2 115  ASP115     -0.2456
@<TRIPOS>BOND
     1     4     3    2
     2     3     2    1
     3    11    12    2
     4    11    10    1
     5     1     2    1
     6     9    10    1
     7     2     5    1
     8    10    13    1
     9    20    19    2
    10    17    18    1
    11    19    18    1
    12    18    21    1
    13     7     6    2
    14    13    14    1
    15     5     6    1
    16     6     8   am
    17    16    14    1
    18    14    15    1
    19    21    22    1
    20    46    45    1
    21    41    42    1
    22    37    38    2
    23    37    36    1
    24   146   147    2
    25   146   145    1
    26    42    45    1
    27    42    43    1
    28    45    47    1
    29    36    35    1
    30    36    39    1
    31   145   148    1
    32   145   144    1
    33   148   149    1
    34   150   149   ar
    35    63    62    2
    36    34    33    1
    37   149   151   ar
    38    25    24    1
    39    25    26    2
    40    43    44    2
    41    43    48   am
    42    40    39    1
    43    33    32   ar
    44    33    31   ar
    45    32    30   ar
    46    24    23    1
    47    24    27    1
    48    31    29   ar
    49    51    50    2
    50    48    49    1
    51    62    61    1
    52    30    28   ar
    53    29    28   ar
    54    28    27    1
    55    50    49    1
    56    50    52   am
    57    58    57   ar
    58    66    64    1
    59    60    61    1
    60    60    54   am
    61    61    64    1
    62   110   108   ar
    63   110   111   ar
    64    53    52    1
    65    53    54    1
    66    53    56    1
    67   124   122   ar
    68   124   125   ar
    69    64    65    1
    70    54    55    2
    71   108   107   ar
    72    57    56    1
    73    57    59   ar
    74   122   121   ar
    75   113   111   ar
    76   113   115   ar
    77   111   109   ar
    78    80    79   ar
    79    80    78   ar
    80   127   125   ar
    81   127   129   ar
    82    79    77   ar
    83   125   123   ar
    84   107   109   ar
    85   107   106    1
    86   115   114   ar
    87   109   112   ar
    88    78    76   ar
    89   121   123   ar
    90   121   120    1
    91   106   103    1
    92   129   128   ar
    93    77    74   ar
    94   123   126   ar
    95   114   112   ar
    96   120   117    1
    97   116   117    1
    98    76    74   ar
    99    76    75   ar
   100    74    72   ar
   101   128   126   ar
   102   103   104    1
   103   103   102    1
   104   117   118    1
   105   104   105    2
   106   101    99    1
   107    75    73   ar
   108   137   135    1
   109   100    99    1
   110    72    73   ar
   111    72    71    1
   112    99    96    1
   113    86    88    1
   114    86    85    1
   115   119   118    2
   116    71    68    1
   117   135   134    1
   118   135   136    1
   119   134   131    1
   120    85    87    1
   121    85    82    1
   122    68    67    1
   123    68    69    1
   124    98    97    2
   125    96    97    1
   126    96    95    1
   127    69    70    2
   128    94    93    1
   129   130   131    1
   130    81    82    1
   131   131   132    1
   132    82    83    1
   133    93    90    1
   134    84    83    2
   135   132   133    2
   136    92    91    2
   137   143   142    1
   138    91    90    1
   139    90    89    1
   140   142   139    1
   141   138   139    1
   142   139   140    1
   143   140   141    2
