@<TRIPOS>MOLECULE
tmp/2zsdA01.pdb
 119 113 0 0 0
SMALL
GASTEIGER

@<TRIPOS>ATOM
      1  N         29.5110   62.8390   26.0700 N.3     7  GLU7       -0.1231
      2  CA        30.1250   61.9950   25.0530 C.3     7  GLU7        0.1699
      3  C         30.8200   62.7540   23.9370 C.2     7  GLU7        0.2592
      4  O         30.3160   63.7710   23.4670 O.2     7  GLU7       -0.2718
      5  CB        29.0590   61.0980   24.4510 C.3     7  GLU7        0.0402
      6  CG        27.9650   60.7900   25.4310 C.3     7  GLU7        0.1161
      7  CD        27.2490   59.5090   25.1070 C.2     7  GLU7        0.3649
      8  OE1       26.6280   59.4320   24.0250 O.co2   7  GLU7       -0.2457
      9  OE2       27.3120   58.5750   25.9370 O.co2   7  GLU7       -0.2457
     10  N         31.9740   62.2490   23.5060 N.am    8  PHE8       -0.1976
     11  CA        32.7320   62.8740   22.4250 C.3     8  PHE8        0.1639
     12  C         32.9870   61.8760   21.3040 C.2     8  PHE8        0.2290
     13  O         32.8740   60.6610   21.4960 O.2     8  PHE8       -0.2864
     14  CB        34.1230   63.3180   22.8790 C.3     8  PHE8        0.0560
     15  CG        34.1490   64.1430   24.1180 C.ar    8  PHE8       -0.0200
     16  CD1       33.7820   63.6020   25.3470 C.ar    8  PHE8       -0.0042
     17  CD2       34.6440   65.4440   24.0760 C.ar    8  PHE8       -0.0042
     18  CE1       33.9170   64.3470   26.5220 C.ar    8  PHE8       -0.0003
     19  CE2       34.7840   66.1980   25.2400 C.ar    8  PHE8       -0.0003
     20  CZ        34.4220   65.6480   26.4680 C.ar    8  PHE8       -0.0000
     21  N         36.0350   49.7700   26.4780 N.3   220  ASP220     -0.1225
     22  CA        34.8050   49.1500   25.9960 C.3   220  ASP220      0.1805
     23  C         34.7720   48.7720   24.5160 C.2   220  ASP220      0.2598
     24  O         35.5840   49.2380   23.7210 O.2   220  ASP220     -0.2718
     25  CB        33.6520   50.1070   26.3310 C.3   220  ASP220      0.1424
     26  CG        32.2830   49.4940   26.1540 C.2   220  ASP220      0.3668
     27  OD1       32.0650   48.3060   26.4860 O.co2 220  ASP220     -0.2456
     28  OD2       31.4030   50.2430   25.7020 O.co2 220  ASP220     -0.2456
     29  N         33.8300   47.9020   24.1650 N.am  221  ALA221     -0.1966
     30  CA        33.6560   47.4530   22.7950 C.3   221  ALA221      0.1728
     31  C         32.4200   46.5750   22.6950 C.2   221  ALA221      0.2616
     32  O         31.9390   46.0490   23.6970 O.2   221  ALA221     -0.2715
     33  CB        34.8940   46.6830   22.3300 C.3   221  ALA221      0.0334
     34  N         31.8970   46.4370   21.4860 N.am  222  ARG222     -0.1963
     35  CA        30.7310   45.6040   21.2680 C.3   222  ARG222      0.1729
     36  C         31.1200   44.1670   21.6450 C.2   222  ARG222      0.2616
     37  O         32.1530   43.6510   21.2080 O.2   222  ARG222     -0.2715
     38  CB        30.3020   45.7010   19.8030 C.3   222  ARG222      0.0348
     39  CG        28.7990   45.7020   19.5960 C.3   222  ARG222      0.0492
     40  CD        28.2770   44.3010   19.3570 C.3   222  ARG222      0.2205
     41  NE        28.5710   43.8350   18.0030 N.pl3 222  ARG222     -0.0865
     42  CZ        27.6620   43.7040   17.0400 C.cat 222  ARG222      0.5346
     43  NH1       26.3880   44.0010   17.2750 N.pl3 222  ARG222      0.1354
     44  NH2       28.0280   43.2750   15.8380 N.pl3 222  ARG222      0.1354
     45  N         30.2990   43.5260   22.4650 N.am  223  ILE223     -0.1977
     46  CA        30.5870   42.1730   22.9110 C.3   223  ILE223      0.1596
     47  C         30.8950   41.1710   21.7900 C.2   223  ILE223      0.2287
     48  O         31.7710   40.3210   21.9380 O.2   223  ILE223     -0.2864
     49  CB        29.4440   41.6520   23.7900 C.3   223  ILE223      0.0276
     50  CG1       29.8370   40.3220   24.4160 C.3   223  ILE223      0.0022
     51  CG2       28.1790   41.5170   22.9690 C.3   223  ILE223      0.0022
     52  CD1       28.9650   39.9470   25.5890 C.3   223  ILE223      0.0001
     53  N         30.6410   44.5380   32.8480 N.3   281  LEU281     -0.1245
     54  CA        29.7610   45.5500   32.2760 C.3   281  LEU281      0.1561
     55  C         28.9830   46.3620   33.3100 C.2   281  LEU281      0.2260
     56  O         28.8060   47.5670   33.1450 O.2   281  LEU281     -0.2867
     57  CB        28.7910   44.9130   31.2850 C.3   281  LEU281      0.0270
     58  CG        29.3600   44.8990   29.8680 C.3   281  LEU281      0.0019
     59  CD1       28.4920   44.0510   28.9410 C.3   281  LEU281      0.0001
     60  CD2       29.4670   46.3410   29.3740 C.3   281  LEU281      0.0001
     61  N         30.7790   49.5130   34.4150 N.3   284  ARG284     -0.1245
     62  CA        31.0560   50.5600   33.4390 C.3   284  ARG284      0.1563
     63  C         30.4780   51.9470   33.7520 C.2   284  ARG284      0.2260
     64  O         31.1650   52.9530   33.5740 O.2   284  ARG284     -0.2867
     65  CB        30.5900   50.1190   32.0510 C.3   284  ARG284      0.0307
     66  CG        31.1260   50.9960   30.9380 C.3   284  ARG284      0.0489
     67  CD        30.6680   50.5060   29.5780 C.3   284  ARG284      0.2205
     68  NE        29.2150   50.5240   29.4470 N.pl3 284  ARG284     -0.0865
     69  CZ        28.5620   50.0580   28.3920 C.cat 284  ARG284      0.5346
     70  NH1       29.2340   49.5330   27.3750 N.pl3 284  ARG284      0.1354
     71  NH2       27.2400   50.1330   28.3440 N.pl3 284  ARG284      0.1354
     72  N         35.1020   56.2670   29.5480 N.3   290  VAL290     -0.1245
     73  CA        34.9040   55.0300   28.8170 C.3   290  VAL290      0.1561
     74  C         35.4470   55.2110   27.4020 C.2   290  VAL290      0.2260
     75  O         34.9790   56.0910   26.6680 O.2   290  VAL290     -0.2867
     76  CB        33.4130   54.6830   28.7230 C.3   290  VAL290      0.0252
     77  CG1       33.2070   53.5230   27.7320 C.3   290  VAL290      0.0019
     78  CG2       32.8830   54.3330   30.1060 C.3   290  VAL290      0.0019
     79  N         35.4600   53.8310   23.9460 N.3   292  ARG292     -0.1245
     80  CA        34.7190   52.9050   23.1010 C.3   292  ARG292      0.1563
     81  C         35.5490   52.5660   21.8620 C.2   292  ARG292      0.2260
     82  O         36.0620   53.4590   21.1870 O.2   292  ARG292     -0.2867
     83  CB        33.3870   53.5310   22.6920 C.3   292  ARG292      0.0307
     84  CG        32.5010   52.6310   21.8320 C.3   292  ARG292      0.0489
     85  CD        31.9700   51.4310   22.6140 C.3   292  ARG292      0.2205
     86  NE        30.9620   50.7000   21.8550 N.pl3 292  ARG292     -0.0865
     87  CZ        30.1230   49.8110   22.3810 C.cat 292  ARG292      0.5346
     88  NH1       30.1640   49.5320   23.6770 N.pl3 292  ARG292      0.1354
     89  NH2       29.2310   49.2050   21.6080 N.pl3 292  ARG292      0.1354
     90  N         35.0200   56.8400   20.0010 N.3   301  ARG301     -0.1231
     91  CA        34.0270   57.4660   20.8570 C.3   301  ARG301      0.1694
     92  C         34.4470   57.3880   22.3150 C.2   301  ARG301      0.2592
     93  O         35.0960   56.4250   22.7280 O.2   301  ARG301     -0.2718
     94  CB        32.6730   56.7970   20.6610 C.3   301  ARG301      0.0321
     95  CG        31.9860   57.2030   19.3720 C.3   301  ARG301      0.0489
     96  CD        30.7990   56.3130   19.0850 C.3   301  ARG301      0.2205
     97  NE        31.2200   54.9350   18.8560 N.pl3 301  ARG301     -0.0865
     98  CZ        30.3840   53.9190   18.6700 C.cat 301  ARG301      0.5346
     99  NH1       29.0730   54.1260   18.6860 N.pl3 301  ARG301      0.1354
    100  NH2       30.8610   52.6950   18.4730 N.pl3 301  ARG301      0.1354
    101  N         34.0920   58.4120   23.0900 N.am  302  LEU302     -0.1966
    102  CA        34.4400   58.4460   24.5040 C.3   302  LEU302      0.1728
    103  C         33.2960   58.9800   25.3440 C.2   302  LEU302      0.2616
    104  O         32.5090   59.8020   24.8740 O.2   302  LEU302     -0.2715
    105  CB        35.6760   59.3120   24.7330 C.3   302  LEU302      0.0311
    106  CG        36.9840   58.8960   24.0630 C.3   302  LEU302      0.0022
    107  CD1       37.0260   59.3900   22.6200 C.3   302  LEU302      0.0001
    108  CD2       38.1390   59.4920   24.8470 C.3   302  LEU302      0.0001
    109  N         33.2000   58.4990   26.5820 N.am  303  ARG303     -0.1977
    110  CA        32.1530   58.9370   27.5070 C.3   303  ARG303      0.1597
    111  C         32.8300   59.3650   28.7950 C.2   303  ARG303      0.2287
    112  O         33.4220   58.5460   29.5000 O.2   303  ARG303     -0.2864
    113  CB        31.1730   57.8010   27.8040 C.3   303  ARG303      0.0334
    114  CG        29.9270   58.2230   28.5900 C.3   303  ARG303      0.0492
    115  CD        29.2200   57.0200   29.2240 C.3   303  ARG303      0.2205
    116  NE        29.9450   56.5310   30.4020 N.pl3 303  ARG303     -0.0865
    117  CZ        29.6910   55.3880   31.0430 C.cat 303  ARG303      0.5346
    118  NH1       28.7190   54.5760   30.6300 N.pl3 303  ARG303      0.1354
    119  NH2       30.4110   55.0650   32.1130 N.pl3 303  ARG303      0.1354
@<TRIPOS>BOND
     1    44    42    1
     2    42    43    1
     3    42    41    2
     4    41    40    1
     5   100    98    1
     6    98    99    1
     7    98    97    2
     8    97    96    1
     9    96    95    1
    10    40    39    1
    11    95    94    1
    12    39    38    1
    13    38    35    1
    14    90    91    1
    15    94    91    1
    16    91    92    1
    17    82    81    2
    18    37    36    2
    19    35    34    1
    20    35    36    1
    21    12    13    2
    22    12    11    1
    23    34    31   am
    24    89    87    1
    25    36    45   am
    26    47    48    2
    27    47    46    1
    28    84    85    1
    29    84    83    1
    30    86    87    2
    31    86    85    1
    32    81    80    1
    33    92    93    2
    34    92   101   am
    35    33    30    1
    36    87    88    1
    37    11    14    1
    38    11    10    1
    39    45    46    1
    40   107   106    1
    41    83    80    1
    42    31    30    1
    43    31    32    2
    44    30    29    1
    45    14    15    1
    46    46    49    1
    47    51    49    1
    48   101   102    1
    49    80    79    1
    50     4     3    2
    51    10     3   am
    52    24    23    2
    53    49    50    1
    54     3     2    1
    55     8     7   ar
    56   106   105    1
    57   106   108    1
    58    17    15   ar
    59    17    19   ar
    60    15    16   ar
    61    29    23   am
    62    50    52    1
    63     5     2    1
    64     5     6    1
    65   102   105    1
    66   102   103    1
    67    23    22    1
    68   104   103    2
    69     2     1    1
    70     7     6    1
    71     7     9   ar
    72    19    20   ar
    73   103   109   am
    74    16    18   ar
    75    28    26   ar
    76    22    25    1
    77    22    21    1
    78    26    25    1
    79    26    27   ar
    80    20    18   ar
    81   109   110    1
    82    75    74    2
    83    70    69    1
    84    74    73    1
    85   110   113    1
    86   110   111    1
    87    77    76    1
    88   113   114    1
    89    71    69    1
    90    69    68    2
    91   114   115    1
    92    76    73    1
    93    76    78    1
    94   111   112    2
    95    73    72    1
    96    59    58    1
    97   115   116    1
    98    60    58    1
    99    68    67    1
   100    67    66    1
   101    58    57    1
   102   116   117    2
   103   118   117    1
   104    66    65    1
   105   117   119    1
   106    57    54    1
   107    65    62    1
   108    54    53    1
   109    54    55    1
   110    56    55    2
   111    62    63    1
   112    62    61    1
   113    64    63    2
