@<TRIPOS>MOLECULE
tmp/2zsfA00.pdb
 170 160 0 0 0
SMALL
GASTEIGER

@<TRIPOS>ATOM
      1  N          2.4340   45.4680   23.0520 N.3    34  GLY34      -0.1210
      2  CA         2.6360   46.8970   23.1830 C.3    34  GLY34       0.1956
      3  C          3.0990   47.5290   21.8850 C.2    34  GLY34       0.2611
      4  O          3.6720   46.8520   21.0260 O.2    34  GLY34      -0.2717
      5  N          2.8700   48.8310   21.7490 N.am   35  LEU35      -0.1979
      6  CA         3.2510   49.5530   20.5420 C.3    35  LEU35       0.1596
      7  C          4.7050   49.2940   20.1500 C.2    35  LEU35       0.2287
      8  O          5.6230   49.4820   20.9520 O.2    35  LEU35      -0.2864
      9  CB         3.0210   51.0510   20.7410 C.3    35  LEU35       0.0297
     10  CG         2.9730   51.9060   19.4730 C.3    35  LEU35       0.0022
     11  CD1        1.8920   51.4060   18.5390 C.3    35  LEU35       0.0001
     12  CD2        2.7090   53.3470   19.8540 C.3    35  LEU35       0.0001
     13  N          6.0310   46.3670   19.4450 N.3    37  GLU37      -0.1245
     14  CA         6.3230   44.9420   19.6070 C.3    37  GLU37       0.1567
     15  C          5.9090   44.1180   18.3880 C.2    37  GLU37       0.2260
     16  O          4.8630   44.3710   17.8010 O.2    37  GLU37      -0.2867
     17  CB         5.6220   44.4190   20.8560 C.3    37  GLU37       0.0388
     18  CG         6.3220   44.8150   22.1380 C.3    37  GLU37       0.1160
     19  CD         7.7300   44.2450   22.2150 C.2    37  GLU37       0.3649
     20  OE1        8.7080   44.9460   21.8570 O.co2  37  GLU37      -0.2457
     21  OE2        7.8490   43.0740   22.6260 O.co2  37  GLU37      -0.2457
     22  N         13.9550   49.7670   29.3600 N.3    94  VAL94      -0.1231
     23  CA        12.7730   50.4670   28.9220 C.3    94  VAL94       0.1692
     24  C         12.7330   50.1620   27.4370 C.2    94  VAL94       0.2592
     25  O         13.7780   50.0510   26.8120 O.2    94  VAL94      -0.2718
     26  CB        12.9420   51.9900   29.1530 C.3    94  VAL94       0.0266
     27  CG1       12.1380   52.7910   28.1370 C.3    94  VAL94       0.0020
     28  CG2       12.5050   52.3260   30.5730 C.3    94  VAL94       0.0020
     29  N         11.5390   49.9950   26.8860 N.am   95  ALA95      -0.1966
     30  CA        11.3760   49.7220   25.4610 C.3    95  ALA95       0.1728
     31  C         11.9650   48.4230   24.9580 C.2    95  ALA95       0.2616
     32  O         12.1980   48.2910   23.7660 O.2    95  ALA95      -0.2715
     33  CB        11.9510   50.8680   24.6330 C.3    95  ALA95       0.0334
     34  N         12.2110   47.4470   25.8180 N.am   96  VAL96      -0.1963
     35  CA        12.7770   46.2150   25.2870 C.3    96  VAL96       0.1727
     36  C         11.6910   45.1950   24.9910 C.2    96  VAL96       0.2617
     37  O         11.8980   44.2720   24.2230 O.2    96  VAL96      -0.2715
     38  CB        13.8250   45.6020   26.2430 C.3    96  VAL96       0.0290
     39  CG1       13.1440   44.9440   27.4420 C.3    96  VAL96       0.0023
     40  CG2       14.6710   44.6130   25.4860 C.3    96  VAL96       0.0023
     41  N         10.5260   45.3650   25.5970 N.am   97  GLY97      -0.1940
     42  CA         9.4400   44.4320   25.3500 C.3    97  GLY97       0.2014
     43  C          8.9830   43.6490   26.5670 C.2    97  GLY97       0.2639
     44  O          7.9880   42.9340   26.4940 O.2    97  GLY97      -0.2714
     45  N          9.6950   43.7900   27.6860 N.am   98  LYS98      -0.1963
     46  CA         9.3560   43.0750   28.9100 C.3    98  LYS98       0.1728
     47  C          7.8970   43.2100   29.3250 C.2    98  LYS98       0.2617
     48  O          7.2650   42.2230   29.6980 O.2    98  LYS98      -0.2715
     49  CB        10.2470   43.5320   30.0630 C.3    98  LYS98       0.0311
     50  CG        10.2950   45.0300   30.2490 C.3    98  LYS98       0.0038
     51  CD        10.8620   45.4040   31.6110 C.3    98  LYS98       0.0206
     52  CE        11.1650   46.8900   31.6970 C.3    98  LYS98       0.1093
     53  NZ         9.9940   47.7280   31.3050 N.3    98  LYS98      -0.1314
     54  N          7.3570   44.4230   29.2680 N.am   99  SER99      -0.1936
     55  CA         5.9680   44.6290   29.6570 C.3    99  SER99       0.2055
     56  C          5.0430   43.6800   28.8940 C.2    99  SER99       0.2643
     57  O          4.1300   43.0970   29.4730 O.2    99  SER99      -0.2714
     58  CB         5.5580   46.0840   29.4170 C.3    99  SER99       0.2130
     59  OG         6.2480   46.9530   30.2990 O.3    99  SER99      -0.2179
     60  N          5.2820   43.5310   27.5950 N.am  100  THR100     -0.1950
     61  CA         4.4860   42.6270   26.7640 C.3   100  THR100      0.1897
     62  C          4.8230   41.1900   27.1740 C.2   100  THR100      0.2313
     63  O          3.9350   40.3690   27.3980 O.2   100  THR100     -0.2863
     64  CB         4.8220   42.8090   25.2600 C.3   100  THR100      0.1794
     65  OG1        4.4650   44.1340   24.8490 O.3   100  THR100     -0.2208
     66  CG2        4.0730   41.7940   24.4080 C.3   100  THR100      0.0378
     67  N          2.9860   40.2970   30.1730 N.3   103  ARG103     -0.1245
     68  CA         1.5550   40.1130   29.9670 C.3   103  ARG103      0.1563
     69  C          1.2510   38.8070   29.2340 C.2   103  ARG103      0.2260
     70  O          0.2880   38.0960   29.5590 O.2   103  ARG103     -0.2867
     71  CB         0.9740   41.2970   29.1840 C.3   103  ARG103      0.0307
     72  CG         0.9260   42.5970   29.9720 C.3   103  ARG103      0.0489
     73  CD         0.2080   43.6700   29.1830 C.3   103  ARG103      0.2205
     74  NE         0.9270   44.0220   27.9660 N.pl3 103  ARG103     -0.0865
     75  CZ         1.7180   45.0860   27.8430 C.cat 103  ARG103      0.5346
     76  NH1        1.8870   45.9100   28.8690 N.pl3 103  ARG103      0.1354
     77  NH2        2.3390   45.3250   26.6930 N.pl3 103  ARG103      0.1354
     78  N          3.3160   45.4870   37.9880 N.3   122  THR122     -0.1218
     79  CA         4.4550   46.2150   37.4380 C.3   122  THR122      0.1862
     80  C          4.9390   47.0970   38.5640 C.2   122  THR122      0.2287
     81  O          4.1450   47.5100   39.4050 O.2   122  THR122     -0.2866
     82  CB         4.0560   47.1210   36.2590 C.3   122  THR122      0.1770
     83  OG1        3.1060   48.1000   36.7090 O.3   122  THR122     -0.2211
     84  CG2        3.4530   46.2970   35.1260 C.3   122  THR122      0.0375
     85  N          5.8200   50.0600   38.3540 N.3   124  ASP124     -0.1239
     86  CA         5.4500   51.4560   38.0710 C.3   124  ASP124      0.1674
     87  C          4.8690   52.1280   39.3110 C.2   124  ASP124      0.2266
     88  O          5.3130   53.1910   39.7190 O.2   124  ASP124     -0.2867
     89  CB         4.3580   51.5510   37.0020 C.3   124  ASP124      0.1410
     90  CG         4.8760   51.3760   35.6070 C.2   124  ASP124      0.3668
     91  OD1        6.0720   51.6360   35.3690 O.co2 124  ASP124     -0.2456
     92  OD2        4.0700   50.9940   34.7320 O.co2 124  ASP124     -0.2456
     93  N          0.4060   56.2720   33.3280 N.3   174  HIS174     -0.1226
     94  CA         1.3580   56.5910   32.2750 C.3   174  HIS174      0.1752
     95  C          0.8750   57.8200   31.5120 C.2   174  HIS174      0.2595
     96  O          1.6630   58.5240   30.8840 O.2   174  HIS174     -0.2718
     97  CB         1.5400   55.3940   31.3400 C.3   174  HIS174      0.0759
     98  CG         2.5720   54.4160   31.8120 C.ar  174  HIS174      0.0818
     99  ND1        3.9260   54.6710   31.7350 N.ar  174  HIS174     -0.2268
    100  CD2        2.4520   53.1980   32.3930 C.ar  174  HIS174      0.1154
    101  CE1        4.5950   53.6520   32.2490 C.ar  174  HIS174      0.1986
    102  NE2        3.7240   52.7450   32.6550 N.ar  174  HIS174     -0.2212
    103  N         -0.4260   58.0840   31.5910 N.am  175  LEU175     -0.1980
    104  CA        -1.0200   59.2460   30.9330 C.3   175  LEU175      0.1596
    105  C         -0.6250   60.5290   31.6670 C.2   175  LEU175      0.2287
    106  O         -0.2800   61.5320   31.0450 O.2   175  LEU175     -0.2864
    107  CB        -2.5430   59.1290   30.9270 C.3   175  LEU175      0.0297
    108  CG        -3.2840   60.3110   30.2980 C.3   175  LEU175      0.0022
    109  CD1       -3.0750   60.3000   28.7850 C.3   175  LEU175      0.0001
    110  CD2       -4.7700   60.2290   30.6410 C.3   175  LEU175      0.0001
    111  N         12.1310   47.6040   35.7190 N.3   198  LEU198     -0.1245
    112  CA        13.5070   47.8320   35.2220 C.3   198  LEU198      0.1561
    113  C         14.4270   47.1240   36.1880 C.2   198  LEU198      0.2260
    114  O         15.2600   46.2840   35.8230 O.2   198  LEU198     -0.2867
    115  CB        13.8080   49.3310   35.2330 C.3   198  LEU198      0.0270
    116  CG        12.8550   50.0940   34.3030 C.3   198  LEU198      0.0019
    117  CD1       12.9900   51.6110   34.4630 C.3   198  LEU198      0.0001
    118  CD2       13.1110   49.6370   32.8610 C.3   198  LEU198      0.0001
    119  N          9.3990   54.2460   18.9350 N.3   233  ARG233     -0.1245
    120  CA         8.1900   54.2250   19.7400 C.3   233  ARG233      0.1563
    121  C          7.8360   55.6440   20.1920 C.2   233  ARG233      0.2260
    122  O          6.6640   56.0080   20.2770 O.2   233  ARG233     -0.2867
    123  CB         8.4150   53.3060   20.9370 C.3   233  ARG233      0.0307
    124  CG         7.2850   53.2120   21.9200 C.3   233  ARG233      0.0489
    125  CD         7.3960   51.8960   22.6770 C.3   233  ARG233      0.2205
    126  NE         7.1580   52.0360   24.1100 N.pl3 233  ARG233     -0.0865
    127  CZ         7.8820   52.8080   24.9160 C.cat 233  ARG233      0.5346
    128  NH1        7.5930   52.8690   26.2050 N.pl3 233  ARG233      0.1354
    129  NH2        8.8910   53.5330   24.4380 N.pl3 233  ARG233      0.1354
    130  N          4.4020   57.5100   19.2500 N.3   237  MET237     -0.1245
    131  CA         3.4290   57.9350   20.2480 C.3   237  MET237      0.1570
    132  C          2.8560   59.3350   20.0370 C.2   237  MET237      0.2261
    133  O          1.9760   59.7710   20.7770 O.2   237  MET237     -0.2867
    134  CB         4.0380   57.8340   21.6430 C.3   237  MET237      0.0387
    135  CG         4.4410   56.4210   22.0310 C.3   237  MET237      0.0595
    136  SD         4.7140   56.2840   23.8050 S.3   237  MET237     -0.1393
    137  CE         3.0770   56.3010   24.3410 C.3   237  MET237      0.0692
    138  N         -0.6530   58.0940   22.4230 N.3   241  ALA241     -0.1231
    139  CA        -0.6950   58.6660   23.7660 C.3   241  ALA241      0.1694
    140  C         -0.5350   60.1790   23.8390 C.2   241  ALA241      0.2592
    141  O         -1.3350   60.8510   24.4870 O.2   241  ALA241     -0.2718
    142  CB         0.3500   58.0140   24.6450 C.3   241  ALA241      0.0304
    143  N          0.4990   60.7130   23.1950 N.am  242  PHE242     -0.1976
    144  CA         0.7550   62.1520   23.2370 C.3   242  PHE242      0.1639
    145  C         -0.3680   62.9620   22.6020 C.2   242  PHE242      0.2290
    146  O         -0.5590   64.1370   22.9260 O.2   242  PHE242     -0.2864
    147  CB         2.0830   62.4930   22.5390 C.3   242  PHE242      0.0560
    148  CG         3.2840   61.7740   23.1080 C.ar  242  PHE242     -0.0200
    149  CD1        3.2950   61.3300   24.4310 C.ar  242  PHE242     -0.0042
    150  CD2        4.4110   61.5470   22.3180 C.ar  242  PHE242     -0.0042
    151  CE1        4.4040   60.6700   24.9550 C.ar  242  PHE242     -0.0003
    152  CE2        5.5260   60.8910   22.8310 C.ar  242  PHE242     -0.0003
    153  CZ         5.5230   60.4510   24.1510 C.ar  242  PHE242     -0.0000
    154  N         -2.4950   64.0530   28.2980 N.3   247  SER247     -0.1217
    155  CA        -1.1370   63.5570   28.4280 C.3   247  SER247      0.1889
    156  C         -0.1830   64.6130   28.9780 C.2   247  SER247      0.2288
    157  O         -0.2200   65.7780   28.5690 O.2   247  SER247     -0.2866
    158  CB        -0.6200   63.0770   27.0750 C.3   247  SER247      0.2089
    159  OG         0.7070   62.6020   27.2050 O.3   247  SER247     -0.2183
    160  N          2.7120   64.7500   28.3440 N.3   249  PHE249     -0.1241
    161  CA         3.6460   65.0380   27.2650 C.3   249  PHE249      0.1605
    162  C          2.9380   65.3630   25.9540 C.2   249  PHE249      0.2264
    163  O          3.4450   65.0750   24.8660 O.2   249  PHE249     -0.2867
    164  CB         4.5870   63.8530   27.0770 C.3   249  PHE249      0.0534
    165  CG         5.3490   63.4930   28.3160 C.ar  249  PHE249     -0.0203
    166  CD1        6.3090   64.3550   28.8320 C.ar  249  PHE249     -0.0042
    167  CD2        5.0930   62.3010   28.9790 C.ar  249  PHE249     -0.0042
    168  CE1        6.9990   64.0330   29.9900 C.ar  249  PHE249     -0.0003
    169  CE2        5.7780   61.9710   30.1370 C.ar  249  PHE249     -0.0003
    170  CZ         6.7320   62.8370   30.6440 C.ar  249  PHE249     -0.0000
@<TRIPOS>BOND
     1    16    15    2
     2    15    14    1
     3    11    10    1
     4   119   120    1
     5   130   131    1
     6    13    14    1
     7    10    12    1
     8    10     9    1
     9    14    17    1
    10   120   121    1
    11   120   123    1
    12   132   131    1
    13   132   133    2
    14     7     6    1
    15     7     8    2
    16   121   122    2
    17   131   134    1
    18     6     9    1
    19     6     5    1
    20    17    18    1
    21   123   124    1
    22     4     3    2
    23   134   135    1
    24     5     3   am
    25    20    19   ar
    26     3     2    1
    27   124   125    1
    28   135   136    1
    29    18    19    1
    30    19    21   ar
    31   150   152   ar
    32   150   148   ar
    33   138   139    1
    34   147   148    1
    35   147   144    1
    36   145   146    2
    37   145   144    1
    38   125   126    1
    39   152   153   ar
    40     1     2    1
    41   148   149   ar
    42   143   144    1
    43   143   140   am
    44   139   140    1
    45   139   142    1
    46    32    31    2
    47   136   137    1
    48   140   141    2
    49   126   127    2
    50   153   151   ar
    51    37    36    2
    52    66    64    1
    53   149   151   ar
    54   129   127    1
    55    33    30    1
    56    65    64    1
    57   163   162    2
    58   127   128    1
    59    31    30    1
    60    31    34   am
    61    36    35    1
    62    36    41   am
    63    64    61    1
    64    35    34    1
    65    35    38    1
    66    42    41    1
    67    42    43    1
    68    30    29    1
    69    40    38    1
    70   162   161    1
    71    38    39    1
    72    44    43    2
    73    43    45   am
    74    77    75    1
    75    61    62    1
    76    61    60    1
    77    25    24    2
    78    29    24   am
    79   158   159    1
    80   158   155    1
    81   164   161    1
    82   164   165    1
    83    62    63    2
    84   161   160    1
    85    24    23    1
    86    60    56   am
    87    45    46    1
    88    75    74    2
    89    75    76    1
    90    74    73    1
    91    27    26    1
    92   154   155    1
    93   165   166   ar
    94   165   167   ar
    95   155   156    1
    96   157   156    2
    97   109   108    1
    98   166   168   ar
    99    56    57    2
   100    56    55    1
   101    46    47    1
   102    46    49    1
   103    23    26    1
   104    23    22    1
   105   167   169   ar
   106    26    28    1
   107    73    72    1
   108    71    68    1
   109    71    72    1
   110    69    70    2
   111    69    68    1
   112    54    47   am
   113    54    55    1
   114    47    48    2
   115    58    55    1
   116    58    59    1
   117    68    67    1
   118   168   170   ar
   119    49    50    1
   120   169   170   ar
   121    50    51    1
   122   108   110    1
   123   108   107    1
   124    96    95    2
   125   107   104    1
   126   104   103    1
   127   104   105    1
   128   106   105    2
   129    53    52    1
   130    97    98    1
   131    97    94    1
   132    95   103   am
   133    95    94    1
   134    51    52    1
   135    99    98   ar
   136    99   101   ar
   137    98   100   ar
   138   101   102   ar
   139    94    93    1
   140   100   102   ar
   141   118   116    1
   142   116   117    1
   143   116   115    1
   144    92    90   ar
   145    84    82    1
   146   112   115    1
   147   112   111    1
   148   112   113    1
   149    91    90   ar
   150    90    89    1
   151   114   113    2
   152    82    83    1
   153    82    79    1
   154    89    86    1
   155    79    78    1
   156    79    80    1
   157    86    85    1
   158    86    87    1
   159    80    81    2
   160    87    88    2
