@<TRIPOS>MOLECULE
tmp/2zsiA00.pdb
 203 196 0 0 0
SMALL
GASTEIGER

@<TRIPOS>ATOM
      1  N         -4.3580   12.9220   -7.6250 N.3    19  ILE19      -0.1245
      2  CA        -4.8240   13.8660   -6.6090 C.3    19  ILE19       0.1561
      3  C         -3.7000   14.7590   -6.0890 C.2    19  ILE19       0.2260
      4  O         -3.9060   15.9510   -5.8570 O.2    19  ILE19      -0.2867
      5  CB        -5.5040   13.1340   -5.4230 C.3    19  ILE19       0.0252
      6  CG1       -6.5950   12.1910   -5.9420 C.3    19  ILE19       0.0019
      7  CG2       -6.1470   14.1520   -4.4760 C.3    19  ILE19       0.0019
      8  CD1       -7.7000   12.8750   -6.7510 C.3    19  ILE19       0.0001
      9  N         -2.9970   17.5680   -8.5190 N.3    22  PHE22      -0.1227
     10  CA        -3.9610   18.6600   -8.3890 C.3    22  PHE22       0.1736
     11  C         -3.5960   19.4770   -7.1440 C.2    22  PHE22       0.2595
     12  O         -3.5520   20.7050   -7.1840 O.2    22  PHE22      -0.2718
     13  CB        -5.3900   18.1230   -8.2440 C.3    22  PHE22       0.0547
     14  CG        -5.9940   17.6410   -9.5290 C.ar   22  PHE22      -0.0202
     15  CD1       -6.0910   18.4870  -10.6310 C.ar   22  PHE22      -0.0042
     16  CD2       -6.4880   16.3440   -9.6330 C.ar   22  PHE22      -0.0042
     17  CE1       -6.6760   18.0470  -11.8220 C.ar   22  PHE22      -0.0003
     18  CE2       -7.0760   15.8950  -10.8180 C.ar   22  PHE22      -0.0003
     19  CZ        -7.1690   16.7480  -11.9120 C.ar   22  PHE22      -0.0000
     20  N         -3.3140   18.7780   -6.0470 N.am   23  LYS23      -0.1980
     21  CA        -2.9590   19.4220   -4.7820 C.3    23  LYS23       0.1596
     22  C         -1.8250   20.4400   -4.9180 C.2    23  LYS23       0.2287
     23  O         -1.9410   21.5740   -4.4450 O.2    23  LYS23      -0.2864
     24  CB        -2.5650   18.3620   -3.7410 C.3    23  LYS23       0.0298
     25  CG        -2.2740   18.9320   -2.3480 C.3    23  LYS23       0.0038
     26  CD        -1.6790   17.8780   -1.4100 C.3    23  LYS23       0.0206
     27  CE        -1.3690   18.4720   -0.0370 C.3    23  LYS23       0.1093
     28  NZ        -0.5910   17.5430    0.8320 N.3    23  LYS23      -0.1314
     29  N         -2.8660   23.3720   -7.3210 N.3    26  TYR26      -0.1241
     30  CA        -3.8140   24.2710   -6.6770 C.3    26  TYR26       0.1605
     31  C         -3.1290   25.1520   -5.6380 C.2    26  TYR26       0.2264
     32  O         -3.5680   26.2780   -5.3970 O.2    26  TYR26      -0.2867
     33  CB        -4.9670   23.4710   -6.0550 C.3    26  TYR26       0.0534
     34  CG        -5.8860   22.8040   -7.0720 C.ar   26  TYR26      -0.0201
     35  CD1       -5.5280   22.7040   -8.4210 C.ar   26  TYR26      -0.0009
     36  CD2       -7.1030   22.2480   -6.6740 C.ar   26  TYR26      -0.0009
     37  CE1       -6.3610   22.0630   -9.3450 C.ar   26  TYR26       0.0417
     38  CE2       -7.9400   21.6080   -7.5860 C.ar   26  TYR26       0.0417
     39  CZ        -7.5650   21.5190   -8.9170 C.ar   26  TYR26       0.1957
     40  OH        -8.4020   20.8900   -9.8050 O.3    26  TYR26      -0.2866
     41  N         -4.0010   29.2750   -5.7540 N.3    30  ARG30      -0.1245
     42  CA        -4.5700   30.0520   -4.6520 C.3    30  ARG30       0.1563
     43  C         -3.5170   31.0240   -4.1420 C.2    30  ARG30       0.2260
     44  O         -2.3990   30.6160   -3.8290 O.2    30  ARG30      -0.2867
     45  CB        -4.9660   29.1570   -3.4710 C.3    30  ARG30       0.0307
     46  CG        -6.0600   28.1320   -3.7160 C.3    30  ARG30       0.0489
     47  CD        -6.4280   27.4630   -2.3750 C.3    30  ARG30       0.2205
     48  NE        -5.2660   26.8410   -1.7330 N.pl3  30  ARG30      -0.0865
     49  CZ        -4.8410   25.6050   -1.9830 C.cat  30  ARG30       0.5346
     50  NH1       -5.4900   24.8440   -2.8580 N.pl3  30  ARG30       0.1354
     51  NH2       -3.7560   25.1360   -1.3770 N.pl3  30  ARG30       0.1354
     52  N        -17.1260   18.9530   -9.0790 N.3   109  GLY109     -0.1210
     53  CA       -16.5040   19.4320   -7.8540 C.3   109  GLY109      0.1956
     54  C        -15.3930   20.4210   -8.1640 C.2   109  GLY109      0.2612
     55  O        -15.2750   20.9050   -9.2910 O.2   109  GLY109     -0.2717
     56  N        -14.5610   20.7250   -7.1780 N.am  110  GLY110     -0.1942
     57  CA       -13.5020   21.6910   -7.4080 C.3   110  GLY110      0.2014
     58  C        -13.5780   22.8260   -6.4020 C.2   110  GLY110      0.2639
     59  O        -13.0030   23.8940   -6.6060 O.2   110  GLY110     -0.2714
     60  N        -14.3110   22.5910   -5.3190 N.am  111  SER111     -0.1949
     61  CA       -14.4480   23.5600   -4.2320 C.3   111  SER111      0.1924
     62  C        -14.9410   24.9490   -4.6410 C.2   111  SER111      0.2314
     63  O        -14.5570   25.9500   -4.0300 O.2   111  SER111     -0.2863
     64  CB       -13.1090   23.6750   -3.4980 C.3   111  SER111      0.2116
     65  OG       -12.6760   22.4000   -3.0440 O.3   111  SER111     -0.2180
     66  N        -12.4890   25.5780   -8.9270 N.3   114  HIS114     -0.1226
     67  CA       -11.7950   24.7960   -9.9500 C.3   114  HIS114      0.1752
     68  C        -12.6710   23.9510  -10.8720 C.2   114  HIS114      0.2596
     69  O        -13.8100   23.6210  -10.5500 O.2   114  HIS114     -0.2718
     70  CB       -10.8080   23.8330   -9.2810 C.3   114  HIS114      0.0759
     71  CG        -9.7530   24.5010   -8.4530 C.ar  114  HIS114      0.0818
     72  ND1       -8.5410   24.9020   -8.9730 N.ar  114  HIS114     -0.2268
     73  CD2       -9.7100   24.7920   -7.1310 C.ar  114  HIS114      0.1154
     74  CE1       -7.7930   25.4060   -8.0060 C.ar  114  HIS114      0.1986
     75  NE2       -8.4800   25.3500   -6.8780 N.ar  114  HIS114     -0.2212
     76  N        -12.0840   23.5890  -12.0110 N.am  115  SER115     -0.1952
     77  CA       -12.7030   22.7100  -13.0000 C.3   115  SER115      0.1924
     78  C        -13.8930   23.2190  -13.8030 C.2   115  SER115      0.2314
     79  O        -14.5070   24.2390  -13.4850 O.2   115  SER115     -0.2863
     80  CB       -13.0700   21.3800  -12.3320 C.3   115  SER115      0.2116
     81  OG       -11.8990   20.6940  -11.9100 O.3   115  SER115     -0.2180
     82  N        -11.4130   14.9980  -16.1430 N.3   121  ILE121     -0.1231
     83  CA       -11.8390   14.1570  -15.0270 C.3   121  ILE121      0.1692
     84  C        -13.3560   14.0820  -14.9260 C.2   121  ILE121      0.2592
     85  O        -13.9090   13.0330  -14.5940 O.2   121  ILE121     -0.2718
     86  CB       -11.2640   14.6270  -13.6610 C.3   121  ILE121      0.0266
     87  CG1      -11.5870   16.1030  -13.4110 C.3   121  ILE121      0.0019
     88  CG2       -9.7650   14.3720  -13.6230 C.3   121  ILE121      0.0020
     89  CD1      -11.2200   16.5690  -11.9980 C.3   121  ILE121      0.0001
     90  N        -14.0380   15.1810  -15.2300 N.am  122  TYR122     -0.1976
     91  CA       -15.4910   15.1790  -15.1440 C.3   122  TYR122      0.1639
     92  C        -16.2040   14.6870  -16.3980 C.2   122  TYR122      0.2290
     93  O        -17.3010   14.1320  -16.3140 O.2   122  TYR122     -0.2864
     94  CB       -15.9750   16.5640  -14.7120 C.3   122  TYR122      0.0560
     95  CG       -15.6550   16.7870  -13.2490 C.ar  122  TYR122     -0.0198
     96  CD1      -16.1850   15.9390  -12.2740 C.ar  122  TYR122     -0.0009
     97  CD2      -14.7660   17.7830  -12.8440 C.ar  122  TYR122     -0.0009
     98  CE1      -15.8330   16.0700  -10.9330 C.ar  122  TYR122      0.0417
     99  CE2      -14.4070   17.9230  -11.5000 C.ar  122  TYR122      0.0417
    100  CZ       -14.9460   17.0600  -10.5540 C.ar  122  TYR122      0.1957
    101  OH       -14.5990   17.1750   -9.2260 O.3   122  TYR122     -0.2866
    102  N        -20.2600   16.1180   -6.9070 N.3   185  ASP185     -0.1225
    103  CA       -19.2240   15.7530   -5.9490 C.3   185  ASP185      0.1805
    104  C        -18.6340   17.0470   -5.4150 C.2   185  ASP185      0.2598
    105  O        -18.7080   18.0840   -6.0800 O.2   185  ASP185     -0.2718
    106  CB       -18.1200   14.9110   -6.6280 C.3   185  ASP185      0.1424
    107  CG       -17.3270   15.7000   -7.6720 C.2   185  ASP185      0.3668
    108  OD1      -17.9410   16.2430   -8.6140 O.co2 185  ASP185     -0.2456
    109  OD2      -16.0830   15.7740   -7.5550 O.co2 185  ASP185     -0.2456
    110  N        -18.0710   17.0080   -4.2090 N.am  186  SER186     -0.1952
    111  CA       -17.4510   18.2080   -3.6620 C.3   186  SER186      0.1924
    112  C        -18.4420   19.3820   -3.6980 C.2   186  SER186      0.2314
    113  O        -19.5910   19.2350   -3.2720 O.2   186  SER186     -0.2863
    114  CB       -16.1840   18.5060   -4.4830 C.3   186  SER186      0.2116
    115  OG       -15.6170   19.7720   -4.2020 O.3   186  SER186     -0.2180
    116  N        -19.3590   19.1080   -0.3000 N.3   215  MET215     -0.1245
    117  CA       -18.6380   20.1720    0.3830 C.3   215  MET215      0.1570
    118  C        -19.5320   21.0370    1.2660 C.2   215  MET215      0.2261
    119  O        -20.2860   21.8720    0.7680 O.2   215  MET215     -0.2867
    120  CB       -17.9320   21.0560   -0.6440 C.3   215  MET215      0.0387
    121  CG       -17.0310   22.1210   -0.0260 C.3   215  MET215      0.0595
    122  SD       -16.2530   23.1140   -1.3090 S.3   215  MET215     -0.1393
    123  CE       -15.7080   24.5510   -0.3650 C.3   215  MET215      0.0692
    124  N         -4.3850   14.7620    1.3400 N.3   233  PHE233     -0.1227
    125  CA        -4.5140   15.7310    0.2490 C.3   233  PHE233      0.1736
    126  C         -5.1510   17.0830    0.5430 C.2   233  PHE233      0.2595
    127  O         -4.9310   18.0300   -0.2050 O.2   233  PHE233     -0.2718
    128  CB        -5.2820   15.1190   -0.9320 C.3   233  PHE233      0.0547
    129  CG        -4.8370   13.7360   -1.3030 C.ar  233  PHE233     -0.0202
    130  CD1       -3.5220   13.4900   -1.6750 C.ar  233  PHE233     -0.0042
    131  CD2       -5.7390   12.6750   -1.2720 C.ar  233  PHE233     -0.0042
    132  CE1       -3.1070   12.2020   -2.0130 C.ar  233  PHE233     -0.0003
    133  CE2       -5.3370   11.3860   -1.6070 C.ar  233  PHE233     -0.0003
    134  CZ        -4.0180   11.1490   -1.9780 C.ar  233  PHE233     -0.0000
    135  N         -5.9310   17.1800    1.6140 N.am  234  VAL234     -0.1980
    136  CA        -6.6370   18.4230    1.9190 C.3   234  VAL234      0.1595
    137  C         -6.2650   19.0410    3.2620 C.2   234  VAL234      0.2287
    138  O         -6.0180   18.3290    4.2370 O.2   234  VAL234     -0.2864
    139  CB        -8.1650   18.1740    1.8900 C.3   234  VAL234      0.0276
    140  CG1       -8.9210   19.4940    1.8330 C.3   234  VAL234      0.0022
    141  CG2       -8.5230   17.2970    0.6940 C.3   234  VAL234      0.0022
    142  N         -6.7300   25.3560    3.1970 N.3   238  ASP238     -0.1225
    143  CA        -7.2940   25.5660    1.8700 C.3   238  ASP238      0.1805
    144  C         -8.8240   25.5290    1.9090 C.2   238  ASP238      0.2597
    145  O         -9.4740   26.2290    1.1340 O.2   238  ASP238     -0.2718
    146  CB        -6.6930   24.6030    0.8080 C.3   238  ASP238      0.1424
    147  CG        -7.1330   23.1570    0.9620 C.2   238  ASP238      0.3668
    148  OD1       -6.2820   22.3070    1.3100 O.co2 238  ASP238     -0.2456
    149  OD2       -8.3160   22.8570    0.7090 O.co2 238  ASP238     -0.2456
    150  N         -9.4010   24.7570    2.8280 N.am  239  ARG239     -0.1979
    151  CA       -10.8620   24.7260    2.9580 C.3   239  ARG239      0.1597
    152  C        -11.3230   26.1480    3.3060 C.2   239  ARG239      0.2287
    153  O        -12.2740   26.6680    2.7170 O.2   239  ARG239     -0.2864
    154  CB       -11.3140   23.7720    4.0760 C.3   239  ARG239      0.0334
    155  CG       -11.0950   22.2780    3.8280 C.3   239  ARG239      0.0492
    156  CD       -11.8150   21.8020    2.5680 C.3   239  ARG239      0.2205
    157  NE       -10.9820   21.9930    1.3830 N.pl3 239  ARG239     -0.0865
    158  CZ       -11.4470   22.0060    0.1400 C.cat 239  ARG239      0.5346
    159  NH1      -12.7440   21.8440   -0.0920 N.pl3 239  ARG239      0.1354
    160  NH2      -10.6100   22.1760   -0.8730 N.pl3 239  ARG239      0.1354
    161  N        -11.2330   28.4680    0.1870 N.3   242  TYR242     -0.1241
    162  CA       -12.3340   28.3130   -0.7590 C.3   242  TYR242      0.1605
    163  C        -13.6460   28.8580   -0.2170 C.2   242  TYR242      0.2264
    164  O        -14.4220   29.4580   -0.9660 O.2   242  TYR242     -0.2867
    165  CB       -12.4920   26.8450   -1.1730 C.3   242  TYR242      0.0534
    166  CG       -11.3360   26.3640   -2.0190 C.ar  242  TYR242     -0.0201
    167  CD1      -11.0920   26.9200   -3.2740 C.ar  242  TYR242     -0.0009
    168  CD2      -10.4540   25.3910   -1.5460 C.ar  242  TYR242     -0.0009
    169  CE1       -9.9920   26.5270   -4.0390 C.ar  242  TYR242      0.0417
    170  CE2       -9.3440   24.9890   -2.3050 C.ar  242  TYR242      0.0417
    171  CZ        -9.1250   25.5670   -3.5470 C.ar  242  TYR242      0.1957
    172  OH        -8.0270   25.2050   -4.2900 O.3   242  TYR242     -0.2866
    173  N        -10.7210   11.6810   -0.7210 N.3   314  VAL314     -0.1231
    174  CA       -11.3710   12.5240   -1.7130 C.3   314  VAL314      0.1692
    175  C        -10.9150   11.9710   -3.0660 C.2   314  VAL314      0.2592
    176  O         -9.8600   11.3340   -3.1550 O.2   314  VAL314     -0.2718
    177  CB       -10.9260   14.0150   -1.5980 C.3   314  VAL314      0.0266
    178  CG1      -11.4450   14.6150   -0.3040 C.3   314  VAL314      0.0020
    179  CG2       -9.4090   14.1240   -1.6690 C.3   314  VAL314      0.0020
    180  N        -11.7230   12.1820   -4.1010 N.am  315  GLY315     -0.1957
    181  CA       -11.3700   11.7270   -5.4370 C.3   315  GLY315      0.1869
    182  C        -11.3320   10.2330   -5.7280 C.2   315  GLY315      0.2309
    183  O        -10.8010    9.8370   -6.7590 O.2   315  GLY315     -0.2863
    184  N        -13.5880    8.3770   -6.7740 N.3   317  TYR317     -0.1227
    185  CA       -14.4250    8.0720   -7.9360 C.3   317  TYR317      0.1736
    186  C        -13.8840    8.5280   -9.2890 C.2   317  TYR317      0.2595
    187  O        -14.5920    8.4470  -10.2930 O.2   317  TYR317     -0.2718
    188  CB       -15.8090    8.6820   -7.7170 C.3   317  TYR317      0.0548
    189  CG       -15.7240   10.1190   -7.2570 C.ar  317  TYR317     -0.0200
    190  CD1      -15.5750   11.1570   -8.1730 C.ar  317  TYR317     -0.0009
    191  CD2      -15.6970   10.4280   -5.8990 C.ar  317  TYR317     -0.0009
    192  CE1      -15.3930   12.4720   -7.7450 C.ar  317  TYR317      0.0417
    193  CE2      -15.5140   11.7350   -5.4610 C.ar  317  TYR317      0.0417
    194  CZ       -15.3600   12.7520   -6.3900 C.ar  317  TYR317      0.1957
    195  OH       -15.1460   14.0440   -5.9560 O.3   317  TYR317     -0.2866
    196  N        -12.6440    9.0050   -9.3310 N.am  318  LEU318     -0.1980
    197  CA       -12.0640    9.4680  -10.5910 C.3   318  LEU318      0.1596
    198  C        -11.3790    8.3520  -11.3870 C.2   318  LEU318      0.2287
    199  O        -11.1630    8.4830  -12.5950 O.2   318  LEU318     -0.2864
    200  CB       -11.0860   10.6180  -10.3240 C.3   318  LEU318      0.0297
    201  CG       -11.7190   11.8480   -9.6550 C.3   318  LEU318      0.0022
    202  CD1      -10.6360   12.8580   -9.3270 C.3   318  LEU318      0.0001
    203  CD2      -12.7720   12.4670  -10.5660 C.3   318  LEU318      0.0001
@<TRIPOS>BOND
     1    92    93    2
     2    92    91    1
     3    82    83    1
     4    90    91    1
     5    90    84   am
     6    91    94    1
     7    83    84    1
     8    83    86    1
     9    84    85    2
    10    94    95    1
    11    78    79    2
    12    78    77    1
    13    86    88    1
    14    86    87    1
    15    87    89    1
    16    95    97   ar
    17    95    96   ar
    18    77    80    1
    19    77    76    1
    20    97    99   ar
    21   199   198    2
    22    80    81    1
    23    96    98   ar
    24    76    68   am
    25    19    17   ar
    26    19    18   ar
    27    17    15   ar
    28    99   100   ar
    29   198   197    1
    30    98   100   ar
    31    68    69    2
    32    68    67    1
    33    18    16   ar
    34    15    14   ar
    35   197   200    1
    36   197   196    1
    37   203   201    1
    38   100   101    1
    39   200   201    1
    40   187   186    2
    41    67    70    1
    42    67    66    1
    43    40    39    1
    44   201   202    1
    45    16    14   ar
    46    14    13    1
    47    37    39   ar
    48    37    35   ar
    49   196   186   am
    50    55    54    2
    51   186   185    1
    52    70    71    1
    53    52    53    1
    54    72    71   ar
    55    72    74   ar
    56    39    38   ar
    57   108   107   ar
    58     9    10    1
    59    71    73   ar
    60    35    34   ar
    61    10    13    1
    62    10    11    1
    63   190   192   ar
    64   190   189   ar
    65    54    53    1
    66    54    56   am
    67    74    75   ar
    68   185   188    1
    69   185   184    1
    70   192   194   ar
    71   188   189    1
    72   107   109   ar
    73   107   106    1
    74     1     2    1
    75    38    36   ar
    76    57    56    1
    77    57    58    1
    78    29    30    1
    79   189   191   ar
    80    12    11    2
    81    11    20   am
    82    73    75   ar
    83    34    36   ar
    84    34    33    1
    85   102   103    1
    86   183   182    2
    87     8     6    1
    88    30    33    1
    89    30    31    1
    90   106   103    1
    91     2     3    1
    92     2     5    1
    93    59    58    2
    94    58    60   am
    95   194   195    1
    96   194   193   ar
    97     3     4    2
    98   105   104    2
    99    20    21    1
   100   103   104    1
   101     6     5    1
   102   191   193   ar
   103    41    42    1
   104   182   181    1
   105    31    32    2
   106   181   180    1
   107     5     7    1
   108   104   110   am
   109    60    61    1
   110    22    21    1
   111    22    23    2
   112    21    24    1
   113    42    43    1
   114    42    45    1
   115    62    61    1
   116    62    63    2
   117   114   115    1
   118   114   111    1
   119   172   171    1
   120    61    64    1
   121   110   111    1
   122    43    44    2
   123   180   175   am
   124   169   171   ar
   125   169   167   ar
   126    24    25    1
   127    46    45    1
   128    46    47    1
   129   112   111    1
   130   112   113    2
   131   171   170   ar
   132    64    65    1
   133   167   166   ar
   134   176   175    2
   135   175   174    1
   136    50    49    1
   137    47    48    1
   138    25    26    1
   139   170   168   ar
   140   166   168   ar
   141   166   165    1
   142   132   134   ar
   143   132   130   ar
   144    49    48    2
   145    49    51    1
   146   134   133   ar
   147   174   177    1
   148   174   173    1
   149   130   129   ar
   150   179   177    1
   151   133   131   ar
   152   177   178    1
   153    26    27    1
   154   122   123    1
   155   122   121    1
   156   129   131   ar
   157   129   128    1
   158   165   162    1
   159   164   163    2
   160   128   125    1
   161   160   158    1
   162   162   163    1
   163   162   161    1
   164   120   121    1
   165   120   117    1
   166   116   117    1
   167   127   126    2
   168   159   158    1
   169    27    28    1
   170   158   157    2
   171   125   126    1
   172   125   124    1
   173   117   118    1
   174   126   135   am
   175   141   139    1
   176   149   147   ar
   177   119   118    2
   178   146   147    1
   179   146   143    1
   180   147   148   ar
   181   145   144    2
   182   157   156    1
   183   135   136    1
   184   140   139    1
   185   143   144    1
   186   143   142    1
   187   139   136    1
   188   144   150   am
   189   136   137    1
   190   156   155    1
   191   153   152    2
   192   150   151    1
   193   151   152    1
   194   151   154    1
   195   137   138    2
   196   155   154    1
