@<TRIPOS>MOLECULE
tmp/2zsjC00.pdb
 132 126 0 0 0
SMALL
GASTEIGER

@<TRIPOS>ATOM
      1  N         25.5560   55.3250   47.5950 N.3    59  SER59      -0.1202
      2  CA        25.7910   56.7190   47.9520 C.3    59  SER59       0.2020
      3  C         25.3970   56.9860   49.3960 C.2    59  SER59       0.2619
      4  O         24.5340   56.3050   49.9290 O.2    59  SER59      -0.2717
      5  CB        24.9810   57.6350   47.0370 C.3    59  SER59       0.2103
      6  OG        25.0570   58.9710   47.4850 O.3    59  SER59      -0.2182
      7  N         26.0200   57.9840   50.0190 N.am   60  PHE60      -0.1961
      8  CA        25.6960   58.3250   51.4010 C.3    60  PHE60       0.1771
      9  C         24.2450   58.8110   51.4850 C.2    60  PHE60       0.2619
     10  O         23.6540   58.8330   52.5640 O.2    60  PHE60      -0.2715
     11  CB        26.6590   59.4110   51.9340 C.3    60  PHE60       0.0574
     12  CG        26.4510   60.7770   51.3270 C.ar   60  PHE60      -0.0200
     13  CD1       25.4320   61.6130   51.7840 C.ar   60  PHE60      -0.0042
     14  CD2       27.2510   61.2130   50.2720 C.ar   60  PHE60      -0.0042
     15  CE1       25.2040   62.8630   51.1990 C.ar   60  PHE60      -0.0003
     16  CE2       27.0350   62.4630   49.6770 C.ar   60  PHE60      -0.0003
     17  CZ        26.0040   63.2910   50.1430 C.ar   60  PHE60      -0.0000
     18  N         23.6730   59.1900   50.3410 N.am   61  LYS61      -0.1977
     19  CA        22.3020   59.6870   50.2930 C.3    61  LYS61       0.1596
     20  C         21.3360   58.7370   51.0100 C.2    61  LYS61       0.2287
     21  O         20.2730   59.1540   51.4860 O.2    61  LYS61      -0.2864
     22  CB        21.8510   59.8620   48.8410 C.3    61  LYS61       0.0298
     23  CG        22.7110   60.8090   48.0050 C.3    61  LYS61       0.0038
     24  CD        22.1980   62.2280   48.0100 C.3    61  LYS61       0.0206
     25  CE        22.7020   63.0070   46.7920 C.3    61  LYS61       0.1093
     26  NZ        24.1870   62.9440   46.6530 N.3    61  LYS61      -0.1314
     27  N         22.1550   60.2460   42.0670 N.3    87  ASN87      -0.1240
     28  CA        22.1080   59.3640   43.2240 C.3    87  ASN87       0.1653
     29  C         20.8770   59.5710   44.0970 C.2    87  ASN87       0.2266
     30  O         20.3800   58.6230   44.7120 O.2    87  ASN87      -0.2867
     31  CB        23.3830   59.5300   44.0600 C.3    87  ASN87       0.1155
     32  CG        24.6350   59.1240   43.2950 C.2    87  ASN87       0.2627
     33  OD1       24.5750   58.2790   42.4110 O.2    87  ASN87      -0.2716
     34  ND2       25.7710   59.7150   43.6450 N.am   87  ASN87      -0.0877
     35  N         21.6500   62.1390   57.4220 N.3   164  GLN164     -0.1245
     36  CA        23.0540   62.2290   57.0290 C.3   164  GLN164      0.1566
     37  C         24.0180   62.5680   58.1640 C.2   164  GLN164      0.2260
     38  O         25.1860   62.1800   58.1290 O.2   164  GLN164     -0.2867
     39  CB        23.2030   63.2350   55.8810 C.3   164  GLN164      0.0367
     40  CG        22.5660   62.7140   54.5940 C.3   164  GLN164      0.0905
     41  CD        22.4790   63.7390   53.4810 C.2   164  GLN164      0.2608
     42  OE1       21.8210   63.4970   52.4670 O.2   164  GLN164     -0.2717
     43  NE2       23.1390   64.8820   53.6550 N.am  164  GLN164     -0.0878
     44  N         33.4490   66.3110   50.1260 N.3   185  PRO185     -0.2102
     45  CA        33.1610   66.9800   48.8560 C.3   185  PRO185      0.1504
     46  C         31.9370   67.8630   49.1040 C.2   185  PRO185      0.2576
     47  O         31.1100   67.5590   49.9690 O.2   185  PRO185     -0.2718
     48  CB        32.8320   65.8220   47.9110 C.3   185  PRO185      0.0282
     49  CG        33.5570   64.6420   48.5220 C.3   185  PRO185      0.0208
     50  CD        33.2840   64.8530   49.9950 C.3   185  PRO185      0.0893
     51  N         31.8160   68.9520   48.3590 N.am  186  VAL186     -0.1966
     52  CA        30.6770   69.8300   48.5390 C.3   186  VAL186      0.1727
     53  C         29.9590   70.0860   47.2190 C.2   186  VAL186      0.2617
     54  O         30.5300   70.6490   46.2870 O.2   186  VAL186     -0.2715
     55  CB        31.1140   71.1630   49.1870 C.3   186  VAL186      0.0290
     56  CG1       29.9440   72.1470   49.2120 C.3   186  VAL186      0.0023
     57  CG2       31.6000   70.8980   50.6160 C.3   186  VAL186      0.0023
     58  N         28.7070   69.6390   47.1530 N.am  187  GLY187     -0.1940
     59  CA        27.9030   69.9520   45.9770 C.3   187  GLY187      0.2014
     60  C         26.8010   70.9530   46.3250 C.2   187  GLY187      0.2639
     61  O         26.9550   72.1630   46.1750 O.2   187  GLY187     -0.2714
     62  N         25.6490   70.4020   46.7710 N.am  188  ASN188     -0.1958
     63  CA        24.5950   71.2500   47.3120 C.3   188  ASN188      0.1819
     64  C         24.8810   71.6490   48.7670 C.2   188  ASN188      0.2621
     65  O         24.1680   72.4380   49.3770 O.2   188  ASN188     -0.2715
     66  CB        23.2820   70.4770   47.2410 C.3   188  ASN188      0.1195
     67  CG        22.6090   70.7370   45.9180 C.2   188  ASN188      0.2630
     68  OD1       22.2660   71.8640   45.5750 O.2   188  ASN188     -0.2716
     69  ND2       22.4230   69.6470   45.1540 N.am  188  ASN188     -0.0877
     70  N         25.9240   71.0200   49.3470 N.am  189  ALA189     -0.1963
     71  CA        26.4040   71.4330   50.6690 C.3   189  ALA189      0.1728
     72  C         25.5920   70.8440   51.8330 C.2   189  ALA189      0.2617
     73  O         25.7690   71.1950   52.9950 O.2   189  ALA189     -0.2715
     74  CB        26.3850   72.9610   50.7420 C.3   189  ALA189      0.0334
     75  N         24.6510   69.9410   51.4930 N.am  190  GLY190     -0.1940
     76  CA        23.8290   69.3340   52.5390 C.3   190  GLY190      0.2014
     77  C         24.6530   68.4280   53.4620 C.2   190  GLY190      0.2639
     78  O         24.4570   68.3820   54.6690 O.2   190  GLY190     -0.2714
     79  N         25.5740   67.6800   52.8660 N.am  191  ASN191     -0.1958
     80  CA        26.3710   66.7310   53.6280 C.3   191  ASN191      0.1819
     81  C         27.3130   67.4170   54.6160 C.2   191  ASN191      0.2621
     82  O         27.3850   67.0180   55.7830 O.2   191  ASN191     -0.2715
     83  CB        27.1600   65.8210   52.6750 C.3   191  ASN191      0.1195
     84  CG        27.3740   64.4220   53.2430 C.2   191  ASN191      0.2630
     85  OD1       26.6920   64.0120   54.1880 O.2   191  ASN191     -0.2716
     86  ND2       28.3090   63.6710   52.6530 N.am  191  ASN191     -0.0877
     87  N         28.0340   68.4430   54.1670 N.am  192  ILE192     -0.1977
     88  CA        28.9430   69.1370   55.0730 C.3   192  ILE192      0.1596
     89  C         28.1410   69.7830   56.2150 C.2   192  ILE192      0.2287
     90  O         28.6130   69.8590   57.3520 O.2   192  ILE192     -0.2864
     91  CB        29.8020   70.1930   54.3220 C.3   192  ILE192      0.0276
     92  CG1       30.8510   70.7720   55.2820 C.3   192  ILE192      0.0022
     93  CG2       28.9160   71.2820   53.7230 C.3   192  ILE192      0.0022
     94  CD1       31.8930   71.6370   54.6010 C.3   192  ILE192      0.0001
     95  N         28.5860   64.5330   40.6620 N.3   240  ALA240     -0.1231
     96  CA        27.8820   64.6570   41.9350 C.3   240  ALA240      0.1694
     97  C         28.0460   66.0220   42.6080 C.2   240  ALA240      0.2591
     98  O         27.2080   66.4100   43.4280 O.2   240  ALA240     -0.2718
     99  CB        28.3200   63.5430   42.8770 C.3   240  ALA240      0.0304
    100  N         29.1170   66.7450   42.2820 N.am  241  ILE241     -0.1980
    101  CA        29.3230   68.0680   42.8590 C.3   241  ILE241      0.1595
    102  C         29.2570   69.1740   41.8050 C.2   241  ILE241      0.2287
    103  O         29.6900   70.2990   42.0520 O.2   241  ILE241     -0.2864
    104  CB        30.6790   68.1850   43.6140 C.3   241  ILE241      0.0276
    105  CG1       31.8220   67.6850   42.7330 C.3   241  ILE241      0.0022
    106  CG2       30.6070   67.4250   44.9350 C.3   241  ILE241      0.0022
    107  CD1       33.1980   67.8150   43.3800 C.3   241  ILE241      0.0001
    108  N         33.8650   57.1410   43.6320 N.3   287  GLU287     -0.1245
    109  CA        33.6280   57.8990   42.4140 C.3   287  GLU287      0.1567
    110  C         34.3530   59.2430   42.4850 C.2   287  GLU287      0.2260
    111  O         34.7600   59.6880   43.5690 O.2   287  GLU287     -0.2867
    112  CB        32.1340   58.1020   42.1570 C.3   287  GLU287      0.0388
    113  CG        31.3690   58.8540   43.2140 C.3   287  GLU287      0.1160
    114  CD        30.0110   59.2990   42.7010 C.2   287  GLU287      0.3649
    115  OE1       29.9490   60.3440   42.0140 O.co2 287  GLU287     -0.2457
    116  OE2       29.0080   58.5990   42.9650 O.co2 287  GLU287     -0.2457
    117  N         33.6300   62.5490   42.4590 N.3   289  ALA289     -0.1245
    118  CA        33.2470   63.5410   43.4630 C.3   289  ALA289      0.1562
    119  C         33.8410   63.2040   44.8280 C.2   289  ALA289      0.2260
    120  O         34.3900   64.0750   45.5120 O.2   289  ALA289     -0.2867
    121  CB        31.7230   63.6260   43.5610 C.3   289  ALA289      0.0290
    122  N         32.1430   59.8210   49.4790 N.3   317  THR317     -0.1203
    123  CA        30.6980   59.8510   49.2630 C.3   317  THR317      0.1994
    124  C         30.0010   58.7950   48.4050 C.2   317  THR317      0.2618
    125  O         28.8300   58.4850   48.6490 O.2   317  THR317     -0.2717
    126  CB        30.3100   61.2290   48.7020 C.3   317  THR317      0.1784
    127  OG1       31.0380   61.4580   47.4900 O.3   317  THR317     -0.2211
    128  CG2       30.6630   62.3290   49.6850 C.3   317  THR317      0.0376
    129  N         30.6900   58.2510   47.4010 N.am  318  GLY318     -0.1956
    130  CA        30.0520   57.2740   46.5310 C.3   318  GLY318      0.1869
    131  C         30.9470   56.1540   46.0140 C.2   318  GLY318      0.2309
    132  O         32.1690   56.2840   45.9610 O.2   318  GLY318     -0.2863
@<TRIPOS>BOND
     1    95    96    1
     2   102   103    2
     3   102   101    1
     4    96    97    1
     5    96    99    1
     6   115   114   ar
     7    27    28    1
     8   112   109    1
     9   112   113    1
    10   100    97   am
    11   100   101    1
    12    33    32    2
    13   109   110    1
    14   109   108    1
    15   117   118    1
    16   110   111    2
    17    97    98    2
    18   114   116   ar
    19   114   113    1
    20   105   107    1
    21   105   104    1
    22   101   104    1
    23    28    31    1
    24    28    29    1
    25    32    34   am
    26    32    31    1
    27   118   121    1
    28   118   119    1
    29   104   106    1
    30    29    30    2
    31   119   120    2
    32    69    67   am
    33    68    67    2
    34    67    66    1
    35   132   131    2
    36    59    60    1
    37    59    58    1
    38   131   130    1
    39    61    60    2
    40    54    53    2
    41    60    62   am
    42   130   129    1
    43    26    25    1
    44    62    63    1
    45    25    24    1
    46     5     6    1
    47     5     2    1
    48    58    53   am
    49    53    52    1
    50    66    63    1
    51    63    64    1
    52   129   124   am
    53   127   126    1
    54     1     2    1
    55    48    49    1
    56    48    45    1
    57     2     3    1
    58    23    24    1
    59    23    22    1
    60    51    52    1
    61    51    46   am
    62   124   125    2
    63   124   123    1
    64    49    50    1
    65    52    55    1
    66   126   123    1
    67   126   128    1
    68    64    70   am
    69    64    65    2
    70    22    19    1
    71    45    46    1
    72    45    44    1
    73    46    47    2
    74    55    56    1
    75    55    57    1
    76   123   122    1
    77    70    71    1
    78     3     4    2
    79     3     7   am
    80    16    17   ar
    81    16    14   ar
    82    50    44    1
    83     7     8    1
    84    17    15   ar
    85    14    12   ar
    86    19    18    1
    87    19    20    1
    88    18     9   am
    89    71    74    1
    90    71    72    1
    91    20    21    2
    92    15    13   ar
    93    12    13   ar
    94    12    11    1
    95     8     9    1
    96     8    11    1
    97     9    10    2
    98    75    72   am
    99    75    76    1
   100    72    73    2
   101    42    41    2
   102    76    77    1
   103    86    84   am
   104    83    84    1
   105    83    80    1
   106    79    77   am
   107    79    80    1
   108    84    85    2
   109    77    78    2
   110    41    43   am
   111    41    40    1
   112    80    81    1
   113    93    91    1
   114    87    81   am
   115    87    88    1
   116    91    88    1
   117    91    92    1
   118    40    39    1
   119    94    92    1
   120    81    82    2
   121    88    89    1
   122    39    36    1
   123    89    90    2
   124    36    35    1
   125    36    37    1
   126    38    37    2
