@<TRIPOS>MOLECULE
tmp/2zsmA00.pdb
 126 118 0 0 0
SMALL
GASTEIGER

@<TRIPOS>ATOM
      1  N         88.9150   15.5510   -1.2200 N.3    62  TYR62      -0.1241
      2  CA        87.6850   15.9270   -0.5360 C.3    62  TYR62       0.1605
      3  C         87.6130   15.5180    0.9310 C.2    62  TYR62       0.2264
      4  O         86.5680   15.0590    1.4060 O.2    62  TYR62      -0.2867
      5  CB        86.4710   15.3860   -1.3050 C.3    62  TYR62       0.0534
      6  CG        86.2910   16.0720   -2.6410 C.ar   62  TYR62      -0.0201
      7  CD1       85.8380   17.3930   -2.7070 C.ar   62  TYR62      -0.0009
      8  CD2       86.6580   15.4400   -3.8320 C.ar   62  TYR62      -0.0009
      9  CE1       85.7630   18.0720   -3.9230 C.ar   62  TYR62       0.0417
     10  CE2       86.5870   16.1110   -5.0550 C.ar   62  TYR62       0.0417
     11  CZ        86.1400   17.4300   -5.0880 C.ar   62  TYR62       0.1957
     12  OH        86.0930   18.1150   -6.2770 O.3    62  TYR62      -0.2866
     13  N         83.8430    2.2200    2.9450 N.3   117  SER117     -0.1202
     14  CA        83.5340    3.5260    2.3770 C.3   117  SER117      0.2020
     15  C         82.5820    4.2490    3.3080 C.2   117  SER117      0.2619
     16  O         82.0210    3.6420    4.2220 O.2   117  SER117     -0.2717
     17  CB        82.8900    3.3830    0.9870 C.3   117  SER117      0.2103
     18  OG        81.5850    2.8250    1.0600 O.3   117  SER117     -0.2182
     19  N         82.4190    5.5500    3.0920 N.am  118  GLY118     -0.1942
     20  CA        81.4990    6.3170    3.9130 C.3   118  GLY118      0.2014
     21  C         80.0870    5.8530    3.6040 C.2   118  GLY118      0.2639
     22  O         79.2220    5.8190    4.4830 O.2   118  GLY118     -0.2714
     23  N         79.8640    5.4770    2.3460 N.am  119  THR119     -0.1950
     24  CA        78.5620    4.9900    1.8950 C.3   119  THR119      0.1897
     25  C         78.1710    3.7320    2.6670 C.2   119  THR119      0.2313
     26  O         77.0550    3.6350    3.1700 O.2   119  THR119     -0.2863
     27  CB        78.5810    4.6660    0.3810 C.3   119  THR119      0.1794
     28  OG1       78.7690    5.8760   -0.3600 O.3   119  THR119     -0.2208
     29  CG2       77.2700    4.0020   -0.0620 C.3   119  THR119      0.0378
     30  N         77.3790    4.8520    6.3980 N.3   122  THR122     -0.1218
     31  CA        76.0760    5.4580    6.7070 C.3   122  THR122      0.1862
     32  C         74.9440    4.4550    6.4610 C.2   122  THR122      0.2287
     33  O         73.9180    4.4710    7.1450 O.2   122  THR122     -0.2866
     34  CB        75.8000    6.7470    5.8800 C.3   122  THR122      0.1770
     35  OG1       75.8020    6.4410    4.4820 O.3   122  THR122     -0.2211
     36  CG2       76.8470    7.8160    6.1750 C.3   122  THR122      0.0375
     37  N         74.9970   15.1830    2.4120 N.3   145  TYR145     -0.1227
     38  CA        75.3770   14.0730    1.5500 C.3   145  TYR145      0.1736
     39  C         75.8310   12.9180    2.4350 C.2   145  TYR145      0.2595
     40  O         76.6830   13.0940    3.3020 O.2   145  TYR145     -0.2718
     41  CB        76.5140   14.4830    0.6160 C.3   145  TYR145      0.0548
     42  CG        76.9400   13.3700   -0.3040 C.ar  145  TYR145     -0.0200
     43  CD1       76.0400   12.8150   -1.2130 C.ar  145  TYR145     -0.0009
     44  CD2       78.2330   12.8450   -0.2460 C.ar  145  TYR145     -0.0009
     45  CE1       76.4070   11.7660   -2.0380 C.ar  145  TYR145      0.0417
     46  CE2       78.6160   11.7890   -1.0730 C.ar  145  TYR145      0.0417
     47  CZ        77.6960   11.2550   -1.9650 C.ar  145  TYR145      0.1957
     48  OH        78.0540   10.2030   -2.7730 O.3   145  TYR145     -0.2866
     49  N         75.2740   11.7350    2.2080 N.am  146  HIS146     -0.1961
     50  CA        75.6260   10.5870    3.0270 C.3   146  HIS146      0.1787
     51  C         76.1310    9.3880    2.2460 C.2   146  HIS146      0.2620
     52  O         76.3540    8.3170    2.8090 O.2   146  HIS146     -0.2715
     53  CB        74.4230   10.1950    3.8790 C.3   146  HIS146      0.0785
     54  CG        73.9680   11.2900    4.7890 C.ar  146  HIS146      0.0821
     55  ND1       74.7770   11.8190    5.7730 N.ar  146  HIS146     -0.2267
     56  CD2       72.8010   11.9740    4.8520 C.ar  146  HIS146      0.1154
     57  CE1       74.1270   12.7810    6.4040 C.ar  146  HIS146      0.1986
     58  NE2       72.9260   12.8950    5.8640 N.ar  146  HIS146     -0.2212
     59  N         76.3150    9.5590    0.9460 N.am  147  GLY147     -0.1954
     60  CA        76.8110    8.4470    0.1730 C.3   147  GLY147      0.1869
     61  C         75.9460    7.9910   -0.9740 C.2   147  GLY147      0.2309
     62  O         74.8820    8.5420   -1.2480 O.2   147  GLY147     -0.2863
     63  N         75.0580   15.9460    9.0650 N.3   201  GLU201     -0.1245
     64  CA        76.4700   16.3270    9.0660 C.3   201  GLU201      0.1567
     65  C         76.5750   17.4890   10.0540 C.2   201  GLU201      0.2260
     66  O         75.9100   18.5110    9.8760 O.2   201  GLU201     -0.2867
     67  CB        76.9220   16.8200    7.6820 C.3   201  GLU201      0.0388
     68  CG        76.9250   15.7780    6.5760 C.3   201  GLU201      0.1160
     69  CD        77.2420   16.3850    5.2110 C.2   201  GLU201      0.3649
     70  OE1       78.3820   16.8610    5.0040 O.co2 201  GLU201     -0.2457
     71  OE2       76.3450   16.3930    4.3440 O.co2 201  GLU201     -0.2457
     72  N         78.9120   19.2840    1.6390 N.3   206  ASN206     -0.1240
     73  CA        78.5530   18.9250    0.2450 C.3   206  ASN206      0.1653
     74  C         77.4620   19.8480   -0.3300 C.2   206  ASN206      0.2266
     75  O         76.6690   19.4960   -1.2070 O.2   206  ASN206     -0.2867
     76  CB        78.0770   17.4750    0.2220 C.3   206  ASN206      0.1155
     77  CG        79.2380   16.5660    0.5050 C.2   206  ASN206      0.2627
     78  OD1       80.0730   16.2820   -0.3510 O.2   206  ASN206     -0.2716
     79  ND2       79.2500   16.0550    1.7470 N.am  206  ASN206     -0.0877
     80  N         76.8700   12.0960   11.0750 N.3   234  ASP234     -0.1239
     81  CA        77.7120   11.6860    9.9640 C.3   234  ASP234      0.1674
     82  C         78.9760   12.5280   10.0380 C.2   234  ASP234      0.2266
     83  O         79.0020   13.6800    9.5870 O.2   234  ASP234     -0.2867
     84  CB        77.0120   11.9190    8.6210 C.3   234  ASP234      0.1410
     85  CG        77.8480   11.4470    7.4330 C.2   234  ASP234      0.3668
     86  OD1       79.0760   11.2330    7.5970 O.co2 234  ASP234     -0.2456
     87  OD2       77.2770   11.3030    6.3320 O.co2 234  ASP234     -0.2456
     88  N         81.8880   11.6000    8.6620 N.3   236  VAL236     -0.1231
     89  CA        82.8280   11.0840    7.6740 C.3   236  VAL236      0.1692
     90  C         83.8470   12.1750    7.3310 C.2   236  VAL236      0.2591
     91  O         85.0240   11.8890    7.1260 O.2   236  VAL236     -0.2718
     92  CB        82.0940   10.5980    6.3990 C.3   236  VAL236      0.0266
     93  CG1       83.0940   10.3400    5.2660 C.3   236  VAL236      0.0020
     94  CG2       81.3380    9.3070    6.7160 C.3   236  VAL236      0.0020
     95  N         83.3910   13.4240    7.2860 N.am  237  VAL237     -0.1980
     96  CA        84.2770   14.5520    6.9950 C.3   237  VAL237      0.1595
     97  C         84.7910   15.2260    8.2660 C.2   237  VAL237      0.2287
     98  O         85.9870   15.4860    8.3930 O.2   237  VAL237     -0.2864
     99  CB        83.5730   15.6410    6.1500 C.3   237  VAL237      0.0276
    100  CG1       84.4390   16.8850    6.0910 C.3   237  VAL237      0.0022
    101  CG2       83.3150   15.1310    4.7360 C.3   237  VAL237      0.0022
    102  N         87.0000    8.6950    5.6380 N.3   262  LYS262     -0.1245
    103  CA        88.1300    9.4190    5.0280 C.3   262  LYS262      0.1561
    104  C         89.3750    9.5150    5.9400 C.2   262  LYS262      0.2260
    105  O         90.2520    8.6610    5.9290 O.2   262  LYS262     -0.2867
    106  CB        87.6490   10.8220    4.6550 C.3   262  LYS262      0.0271
    107  CG        86.2850   10.8030    3.9620 C.3   262  LYS262      0.0035
    108  CD        85.9570   12.1390    3.2940 C.3   262  LYS262      0.0206
    109  CE        84.9940   11.9830    2.1120 C.3   262  LYS262      0.1093
    110  NZ        84.1430   13.1670    2.0110 N.3   262  LYS262     -0.1314
    111  N         87.9750    3.2850    3.3680 N.3   270  VAL270     -0.1245
    112  CA        87.5410    3.1000    4.7430 C.3   270  VAL270      0.1561
    113  C         86.1700    3.6990    5.0380 C.2   270  VAL270      0.2260
    114  O         85.6470    4.5280    4.2910 O.2   270  VAL270     -0.2867
    115  CB        88.5500    3.7550    5.7040 C.3   270  VAL270      0.0252
    116  CG1       88.4980    5.2650    5.5290 C.3   270  VAL270      0.0019
    117  CG2       88.2590    3.3600    7.1490 C.3   270  VAL270      0.0019
    118  N         80.9260   21.9660   -3.3490 N.3   395  GLU395     -0.1245
    119  CA        81.9180   21.1250   -2.6920 C.3   395  GLU395      0.1567
    120  C         82.6410   22.0430   -1.7100 C.2   395  GLU395      0.2260
    121  O         82.2740   23.2120   -1.5630 O.2   395  GLU395     -0.2867
    122  CB        82.9290   20.5540   -3.6930 C.3   395  GLU395      0.0388
    123  CG        82.3940   19.4790   -4.6190 C.3   395  GLU395      0.1160
    124  CD        81.7740   18.3180   -3.8680 C.2   395  GLU395      0.3649
    125  OE1       82.3430   17.8860   -2.8400 O.co2 395  GLU395     -0.2457
    126  OE2       80.7170   17.8260   -4.3120 O.co2 395  GLU395     -0.2457
@<TRIPOS>BOND
     1    12    11    1
     2    11    10   ar
     3    11     9   ar
     4    10     8   ar
     5   123   124    1
     6   123   122    1
     7   126   124   ar
     8     9     7   ar
     9   124   125   ar
    10     8     6   ar
    11   122   119    1
    12   118   119    1
    13    48    47    1
    14     7     6   ar
    15   119   120    1
    16     6     5    1
    17    45    47   ar
    18    45    43   ar
    19    47    46   ar
    20   120   121    2
    21     5     2    1
    22    62    61    2
    23     1     2    1
    24    43    42   ar
    25    75    74    2
    26    46    44   ar
    27    61    60    1
    28     2     3    1
    29    28    27    1
    30    78    77    2
    31    74    73    1
    32    42    44   ar
    33    42    41    1
    34    29    27    1
    35    60    59    1
    36    76    73    1
    37    76    77    1
    38    73    72    1
    39    27    24    1
    40    77    79   am
    41    41    38    1
    42     3     4    2
    43    59    51   am
    44    17    18    1
    45    17    14    1
    46    38    37    1
    47    38    39    1
    48    24    23    1
    49    24    25    1
    50   110   109    1
    51   109   108    1
    52    49    39   am
    53    49    50    1
    54    51    52    2
    55    51    50    1
    56    23    21   am
    57    14    13    1
    58    14    15    1
    59    39    40    2
    60    25    26    2
    61    50    53    1
    62    19    15   am
    63    19    20    1
    64   108   107    1
    65    15    16    2
    66   111   112    1
    67    21    20    1
    68    21    22    2
    69    53    54    1
    70   107   106    1
    71   114   113    2
    72    71    69   ar
    73    35    34    1
    74   106   103    1
    75   101    99    1
    76   112   113    1
    77   112   115    1
    78    54    56   ar
    79    54    55   ar
    80    56    58   ar
    81    70    69   ar
    82   103   102    1
    83   103   104    1
    84    69    68    1
    85    93    92    1
    86   116   115    1
    87   115   117    1
    88    55    57   ar
    89    58    57   ar
    90    34    36    1
    91    34    31    1
    92   105   104    2
    93   100    99    1
    94    99    96    1
    95    87    85   ar
    96    30    31    1
    97    92    94    1
    98    92    89    1
    99    32    31    1
   100    32    33    2
   101    68    67    1
   102    96    95    1
   103    96    97    1
   104    91    90    2
   105    95    90   am
   106    90    89    1
   107    85    86   ar
   108    85    84    1
   109    89    88    1
   110    67    64    1
   111    97    98    2
   112    84    81    1
   113    63    64    1
   114    64    65    1
   115    83    82    2
   116    66    65    2
   117    81    82    1
   118    81    80    1
