@<TRIPOS>MOLECULE
tmp/2zt6A00.pdb
 188 178 0 0 0
SMALL
GASTEIGER

@<TRIPOS>ATOM
      1  N         39.4720  -10.7720   80.3780 N.3    81  PHE81      -0.1241
      2  CA        38.6000  -10.9780   79.2240 C.3    81  PHE81       0.1605
      3  C         39.3720  -11.5630   78.0460 C.2    81  PHE81       0.2264
      4  O         39.6620  -10.8650   77.0720 O.2    81  PHE81      -0.2867
      5  CB        37.9400   -9.6650   78.7960 C.3    81  PHE81       0.0534
      6  CG        36.7550   -9.8590   77.8930 C.ar   81  PHE81      -0.0203
      7  CD1       35.5580  -10.3570   78.3980 C.ar   81  PHE81      -0.0042
      8  CD2       36.8440   -9.5840   76.5330 C.ar   81  PHE81      -0.0042
      9  CE1       34.4670  -10.5810   77.5630 C.ar   81  PHE81      -0.0003
     10  CE2       35.7580   -9.8060   75.6890 C.ar   81  PHE81      -0.0003
     11  CZ        34.5670  -10.3060   76.2070 C.ar   81  PHE81      -0.0000
     12  N         41.4030  -21.3580   69.0440 N.3    96  ARG96      -0.1245
     13  CA        41.0030  -21.2110   70.4360 C.3    96  ARG96       0.1563
     14  C         41.2200  -22.5660   71.1030 C.2    96  ARG96       0.2260
     15  O         40.4470  -23.5020   70.8930 O.2    96  ARG96      -0.2867
     16  CB        39.5330  -20.7930   70.5440 C.3    96  ARG96       0.0307
     17  CG        38.9540  -20.9360   71.9480 C.3    96  ARG96       0.0489
     18  CD        37.6280  -20.2070   72.0980 C.3    96  ARG96       0.2205
     19  NE        36.8790  -20.6780   73.2610 N.pl3  96  ARG96      -0.0865
     20  CZ        35.8580  -20.0270   73.8110 C.cat  96  ARG96       0.5346
     21  NH1       35.4590  -18.8650   73.3110 N.pl3  96  ARG96       0.1354
     22  NH2       35.2280  -20.5440   74.8570 N.pl3  96  ARG96       0.1354
     23  N         38.3670  -24.7380   72.3610 N.3    99  HIS99      -0.1241
     24  CA        37.5870  -25.4990   71.3910 C.3    99  HIS99       0.1621
     25  C         38.3360  -26.5790   70.6150 C.2    99  HIS99       0.2264
     26  O         37.7580  -27.6150   70.2860 O.2    99  HIS99      -0.2867
     27  CB        36.9260  -24.5370   70.4000 C.3    99  HIS99       0.0745
     28  CG        35.8540  -23.6850   71.0070 C.ar   99  HIS99       0.0817
     29  ND1       35.2810  -22.6230   70.3410 N.ar   99  HIS99      -0.2268
     30  CD2       35.2350  -23.7510   72.2100 C.ar   99  HIS99       0.1154
     31  CE1       34.3560  -22.0730   71.1060 C.ar   99  HIS99       0.1986
     32  NE2       34.3080  -22.7390   72.2460 N.ar   99  HIS99      -0.2212
     33  N         35.3580  -25.8690   80.5630 N.3   130  ASP130     -0.1239
     34  CA        35.3770  -24.4660   80.9660 C.3   130  ASP130      0.1674
     35  C         35.9320  -24.2400   82.3700 C.2   130  ASP130      0.2266
     36  O         35.7730  -23.1610   82.9420 O.2   130  ASP130     -0.2867
     37  CB        33.9680  -23.8730   80.8670 C.3   130  ASP130      0.1410
     38  CG        33.4500  -23.8370   79.4410 C.2   130  ASP130      0.3668
     39  OD1       34.1030  -23.2020   78.5850 O.co2 130  ASP130     -0.2456
     40  OD2       32.3890  -24.4430   79.1770 O.co2 130  ASP130     -0.2456
     41  N         33.7840   -8.3450   70.0880 N.3   214  ARG214     -0.1245
     42  CA        34.6160   -9.3860   70.6760 C.3   214  ARG214      0.1563
     43  C         35.4940   -9.9500   69.5710 C.2   214  ARG214      0.2260
     44  O         35.0390  -10.7610   68.7680 O.2   214  ARG214     -0.2867
     45  CB        33.7350  -10.4950   71.2470 C.3   214  ARG214      0.0307
     46  CG        32.4770   -9.9690   71.9040 C.3   214  ARG214      0.0489
     47  CD        32.5500   -9.9770   73.4110 C.3   214  ARG214      0.2205
     48  NE        32.1500  -11.2710   73.9490 N.pl3 214  ARG214     -0.0865
     49  CZ        31.3950  -11.4240   75.0310 C.cat 214  ARG214      0.5346
     50  NH1       30.9590  -10.3610   75.6940 N.pl3 214  ARG214      0.1354
     51  NH2       31.0710  -12.6410   75.4460 N.pl3 214  ARG214      0.1354
     52  N         36.9180  -12.2680   68.3510 N.3   216  GLU216     -0.1245
     53  CA        36.9920  -13.7150   68.4720 C.3   216  GLU216      0.1567
     54  C         38.2290  -14.2490   67.7560 C.2   216  GLU216      0.2260
     55  O         38.6080  -13.7520   66.6930 O.2   216  GLU216     -0.2867
     56  CB        35.7270  -14.3430   67.8870 C.3   216  GLU216      0.0388
     57  CG        35.0640  -15.3810   68.7830 C.3   216  GLU216      0.1160
     58  CD        34.5920  -14.8110   70.1120 C.2   216  GLU216      0.3649
     59  OE1       33.8910  -13.7760   70.1040 O.co2 216  GLU216     -0.2457
     60  OE2       34.9150  -15.4050   71.1650 O.co2 216  GLU216     -0.2457
     61  N         26.5450  -17.7140   62.6040 N.3   223  LEU223     -0.1231
     62  CA        26.1400  -16.5480   63.3840 C.3   223  LEU223      0.1693
     63  C         26.3470  -16.7610   64.8810 C.2   223  LEU223      0.2592
     64  O         26.0790  -15.8670   65.6810 O.2   223  LEU223     -0.2718
     65  CB        24.6700  -16.2050   63.1250 C.3   223  LEU223      0.0284
     66  CG        24.3030  -15.5670   61.7830 C.3   223  LEU223      0.0019
     67  CD1       22.8020  -15.3280   61.7310 C.3   223  LEU223      0.0001
     68  CD2       25.0550  -14.2550   61.6100 C.3   223  LEU223      0.0001
     69  N         26.8220  -17.9440   65.2570 N.am  224  ILE224     -0.1966
     70  CA        27.0610  -18.2530   66.6630 C.3   224  ILE224      0.1727
     71  C         28.3250  -17.5650   67.1720 C.2   224  ILE224      0.2616
     72  O         28.3640  -17.0750   68.2990 O.2   224  ILE224     -0.2715
     73  CB        27.2030  -19.7740   66.8840 C.3   224  ILE224      0.0290
     74  CG1       25.9310  -20.4850   66.4210 C.3   224  ILE224      0.0022
     75  CG2       27.4660  -20.0690   68.3520 C.3   224  ILE224      0.0023
     76  CD1       24.6760  -20.0050   67.1150 C.3   224  ILE224      0.0001
     77  N         29.3540  -17.5310   66.3320 N.am  225  ARG225     -0.1963
     78  CA        30.6200  -16.9080   66.6930 C.3   225  ARG225      0.1729
     79  C         30.9090  -15.6650   65.8660 C.2   225  ARG225      0.2616
     80  O         31.5610  -15.7460   64.8260 O.2   225  ARG225     -0.2715
     81  CB        31.7710  -17.8990   66.5070 C.3   225  ARG225      0.0348
     82  CG        32.2710  -18.5330   67.7870 C.3   225  ARG225      0.0492
     83  CD        32.6780  -17.4630   68.7800 C.3   225  ARG225      0.2205
     84  NE        33.3470  -18.0220   69.9480 N.pl3 225  ARG225     -0.0865
     85  CZ        32.8310  -18.9680   70.7240 C.cat 225  ARG225      0.5346
     86  NH1       31.6330  -19.4710   70.4600 N.pl3 225  ARG225      0.1354
     87  NH2       33.5110  -19.4100   71.7690 N.pl3 225  ARG225      0.1354
     88  N         30.4300  -14.5140   66.3270 N.am  226  VAL226     -0.1977
     89  CA        30.6680  -13.2660   65.6130 C.3   226  VAL226      0.1596
     90  C         31.5140  -12.3030   66.4400 C.2   226  VAL226      0.2287
     91  O         31.5170  -12.3580   67.6700 O.2   226  VAL226     -0.2864
     92  CB        29.3410  -12.5740   65.2250 C.3   226  VAL226      0.0276
     93  CG1       28.6520  -13.3620   64.1300 C.3   226  VAL226      0.0022
     94  CG2       28.4370  -12.4590   66.4380 C.3   226  VAL226      0.0022
     95  N         28.1560   -8.1110   67.4140 N.3   229  PHE229     -0.1241
     96  CA        26.7630   -8.5030   67.5660 C.3   229  PHE229      0.1605
     97  C         25.9480   -7.5640   68.4440 C.2   229  PHE229      0.2264
     98  O         26.4910   -6.7970   69.2400 O.2   229  PHE229     -0.2867
     99  CB        26.6720   -9.9210   68.1320 C.3   229  PHE229      0.0534
    100  CG        27.3940  -10.1010   69.4330 C.ar  229  PHE229     -0.0203
    101  CD1       28.7760  -10.2480   69.4630 C.ar  229  PHE229     -0.0042
    102  CD2       26.6930  -10.1070   70.6340 C.ar  229  PHE229     -0.0042
    103  CE1       29.4510  -10.3980   70.6710 C.ar  229  PHE229     -0.0003
    104  CE2       27.3590  -10.2550   71.8460 C.ar  229  PHE229     -0.0003
    105  CZ        28.7410  -10.4010   71.8650 C.ar  229  PHE229     -0.0000
    106  N         23.3690   -7.0490   71.4400 N.3   231  MET231     -0.1245
    107  CA        22.9160   -7.7260   72.6420 C.3   231  MET231      0.1570
    108  C         22.0890   -6.8110   73.5320 C.2   231  MET231      0.2261
    109  O         22.3340   -5.6070   73.6130 O.2   231  MET231     -0.2867
    110  CB        24.0990   -8.2870   73.4370 C.3   231  MET231      0.0387
    111  CG        25.0990   -7.2570   73.9170 C.3   231  MET231      0.0595
    112  SD        25.9640   -7.8300   75.3990 S.3   231  MET231     -0.1393
    113  CE        26.7350   -9.3110   74.8110 C.3   231  MET231      0.0692
    114  N         26.7770  -22.7850   86.2090 N.3   315  HIS315     -0.1241
    115  CA        28.2250  -22.7810   86.0340 C.3   315  HIS315      0.1621
    116  C         28.9470  -23.6810   87.0260 C.2   315  HIS315      0.2264
    117  O         28.3600  -24.1540   87.9990 O.2   315  HIS315     -0.2867
    118  CB        28.7760  -21.3580   86.1550 C.3   315  HIS315      0.0745
    119  CG        28.5810  -20.5250   84.9260 C.ar  315  HIS315      0.0817
    120  ND1       29.1000  -19.2550   84.8000 N.ar  315  HIS315     -0.2268
    121  CD2       27.9340  -20.7840   83.7650 C.ar  315  HIS315      0.1154
    122  CE1       28.7840  -18.7680   83.6140 C.ar  315  HIS315      0.1986
    123  NE2       28.0770  -19.6760   82.9660 N.ar  315  HIS315     -0.2212
    124  N         33.8050  -11.6260   86.9890 N.3   323  TYR323     -0.1241
    125  CA        32.9470  -10.6790   87.6910 C.3   323  TYR323      0.1605
    126  C         31.7530  -11.3090   88.4090 C.2   323  TYR323      0.2264
    127  O         30.9850  -10.6030   89.0640 O.2   323  TYR323     -0.2867
    128  CB        32.4400   -9.6130   86.7090 C.3   323  TYR323      0.0534
    129  CG        31.7860  -10.1710   85.4540 C.ar  323  TYR323     -0.0201
    130  CD1       30.6980  -11.0430   85.5330 C.ar  323  TYR323     -0.0009
    131  CD2       32.2550   -9.8200   84.1870 C.ar  323  TYR323     -0.0009
    132  CE1       30.0930  -11.5520   84.3820 C.ar  323  TYR323      0.0417
    133  CE2       31.6570  -10.3230   83.0290 C.ar  323  TYR323      0.0417
    134  CZ        30.5770  -11.1880   83.1340 C.ar  323  TYR323      0.1957
    135  OH        29.9820  -11.6830   81.9950 O.3   323  TYR323     -0.2866
    136  N         25.3580  -21.4080   74.7040 N.3   340  GLU340     -0.1231
    137  CA        24.7680  -20.3640   75.5290 C.3   340  GLU340      0.1699
    138  C         24.2060  -19.2400   74.6650 C.2   340  GLU340      0.2592
    139  O         24.9540  -18.5560   73.9640 O.2   340  GLU340     -0.2718
    140  CB        25.8310  -19.8070   76.4830 C.3   340  GLU340      0.0402
    141  CG        25.5200  -18.4310   77.0390 C.3   340  GLU340      0.1161
    142  CD        26.6600  -17.8550   77.8580 C.2   340  GLU340      0.3649
    143  OE1       27.8320  -18.0440   77.4670 O.co2 340  GLU340     -0.2457
    144  OE2       26.3850  -17.2020   78.8850 O.co2 340  GLU340     -0.2457
    145  N         22.8900  -19.0550   74.7090 N.am  341  ILE341     -0.1966
    146  CA        22.2520  -17.9970   73.9320 C.3   341  ILE341      0.1727
    147  C         21.8930  -16.8170   74.8360 C.2   341  ILE341      0.2616
    148  O         21.9280  -15.6620   74.4100 O.2   341  ILE341     -0.2715
    149  CB        20.9840  -18.5100   73.2020 C.3   341  ILE341      0.0290
    150  CG1       19.9850  -19.0890   74.2040 C.3   341  ILE341      0.0022
    151  CG2       21.3740  -19.5620   72.1770 C.3   341  ILE341      0.0023
    152  CD1       18.7100  -19.6040   73.5620 C.3   341  ILE341      0.0001
    153  N         21.5550  -17.1190   76.0860 N.am  342  VAL342     -0.1963
    154  CA        21.2200  -16.0960   77.0710 C.3   342  VAL342      0.1727
    155  C         21.9750  -16.4290   78.3540 C.2   342  VAL342      0.2616
    156  O         21.9360  -17.5660   78.8230 O.2   342  VAL342     -0.2715
    157  CB        19.7090  -16.0690   77.3830 C.3   342  VAL342      0.0290
    158  CG1       19.4080  -14.9660   78.3870 C.3   342  VAL342      0.0023
    159  CG2       18.9180  -15.8530   76.1060 C.3   342  VAL342      0.0023
    160  N         22.6670  -15.4420   78.9140 N.am  343  GLY343     -0.1955
    161  CA        23.4200  -15.6760   80.1330 C.3   343  GLY343      0.1869
    162  C         22.8920  -14.8920   81.3170 C.2   343  GLY343      0.2309
    163  O         22.9500  -13.6640   81.3290 O.2   343  GLY343     -0.2863
    164  N         21.9320  -11.6000   80.1460 N.3   381  SER381     -0.1217
    165  CA        22.6040  -11.1820   78.9200 C.3   381  SER381      0.1889
    166  C         22.0470  -11.8940   77.6900 C.2   381  SER381      0.2288
    167  O         22.2160  -13.1040   77.5300 O.2   381  SER381     -0.2866
    168  CB        24.1060  -11.4450   79.0470 C.3   381  SER381      0.2089
    169  OG        24.8350  -10.7380   78.0630 O.3   381  SER381     -0.2183
    170  N         21.8910  -12.5330   73.6320 N.3   383  GLY383     -0.1225
    171  CA        22.6450  -12.4300   72.4000 C.3   383  GLY383      0.1811
    172  C         21.6490  -12.6180   71.2780 C.2   383  GLY383      0.2280
    173  O         21.4710  -13.7260   70.7740 O.2   383  GLY383     -0.2866
    174  N         21.7760  -12.3300   68.4140 N.3   385  GLY385     -0.1210
    175  CA        22.3340  -13.0160   67.2650 C.3   385  GLY385      0.1956
    176  C         22.1300  -14.5170   67.3650 C.2   385  GLY385      0.2611
    177  O         21.4540  -15.1150   66.5290 O.2   385  GLY385     -0.2717
    178  N         22.7120  -15.1270   68.3950 N.am  386  ARG386     -0.1979
    179  CA        22.5910  -16.5660   68.6060 C.3   386  ARG386      0.1597
    180  C         21.1330  -16.9690   68.7980 C.2   386  ARG386      0.2287
    181  O         20.7130  -18.0390   68.3560 O.2   386  ARG386     -0.2864
    182  CB        23.4000  -16.9980   69.8330 C.3   386  ARG386      0.0334
    183  CG        24.8760  -16.6520   69.7650 C.3   386  ARG386      0.0492
    184  CD        25.6480  -17.2950   70.9060 C.3   386  ARG386      0.2205
    185  NE        27.0590  -16.9180   70.8800 N.pl3 386  ARG386     -0.0865
    186  CZ        27.9970  -17.4700   71.6430 C.cat 386  ARG386      0.5346
    187  NH1       27.6790  -18.4310   72.4990 N.pl3 386  ARG386      0.1354
    188  NH2       29.2550  -17.0610   71.5510 N.pl3 386  ARG386      0.1354
@<TRIPOS>BOND
     1    68    66    1
     2    67    66    1
     3    66    65    1
     4    61    62    1
     5    65    62    1
     6    62    63    1
     7    93    92    1
     8    80    79    2
     9    63    69   am
    10    63    64    2
    11    92    89    1
    12    92    94    1
    13    69    70    1
    14    89    88    1
    15    89    90    1
    16    79    88   am
    17    79    78    1
    18    77    78    1
    19    77    71   am
    20    74    73    1
    21    74    76    1
    22    90    91    2
    23    81    78    1
    24    81    82    1
    25   177   176    2
    26    70    73    1
    27    70    71    1
    28    55    54    2
    29    73    75    1
    30    71    72    2
    31   175   176    1
    32   175   174    1
    33   176   178   am
    34    95    96    1
    35    96    99    1
    36    96    97    1
    37    54    53    1
    38    82    83    1
    39    56    53    1
    40    56    57    1
    41    99   100    1
    42    52    53    1
    43   181   180    2
    44   178   179    1
    45    97    98    2
    46   179   180    1
    47   179   182    1
    48    44    43    2
    49    83    84    1
    50    57    58    1
    51    12    13    1
    52   100   101   ar
    53   100   102   ar
    54   101   103   ar
    55    43    42    1
    56   183   182    1
    57   183   184    1
    58    84    85    2
    59    41    42    1
    60    59    58   ar
    61    58    60   ar
    62    26    25    2
    63    29    28   ar
    64    29    31   ar
    65    27    28    1
    66    27    24    1
    67    13    16    1
    68    13    14    1
    69    86    85    1
    70    16    17    1
    71    25    24    1
    72   102   104   ar
    73   103   105   ar
    74    42    45    1
    75    85    87    1
    76   173   172    2
    77   185   184    1
    78   185   186    2
    79    15    14    2
    80    28    30   ar
    81    31    32   ar
    82    45    46    1
    83   172   171    1
    84    24    23    1
    85   106   107    1
    86   188   186    1
    87   186   187    1
    88   104   105   ar
    89    46    47    1
    90    17    18    1
    91    18    19    1
    92   151   149    1
    93    30    32   ar
    94   171   170    1
    95   107   110    1
    96   107   108    1
    97   149   146    1
    98   149   150    1
    99    19    20    2
   100    21    20    1
   101    47    48    1
   102   110   111    1
   103   108   109    2
   104   152   150    1
   105    20    22    1
   106   111   112    1
   107   146   145    1
   108   146   147    1
   109    48    49    2
   110   139   138    2
   111   148   147    2
   112   138   145   am
   113   138   137    1
   114   136   137    1
   115   113   112    1
   116   147   153   am
   117    49    51    1
   118    49    50    1
   119   137   140    1
   120    10    11   ar
   121    10     8   ar
   122   153   154    1
   123   159   157    1
   124    11     9   ar
   125   140   141    1
   126     8     6   ar
   127   141   142    1
   128   154   157    1
   129   154   155    1
   130     4     3    2
   131   157   158    1
   132   143   142   ar
   133   167   166    2
   134     9     7   ar
   135   166   165    1
   136   142   144   ar
   137     6     7   ar
   138     6     5    1
   139     3     2    1
   140   169   168    1
   141   155   156    2
   142   155   160   am
   143    39    38   ar
   144     5     2    1
   145   160   161    1
   146   165   168    1
   147   165   164    1
   148    40    38   ar
   149     2     1    1
   150    38    37    1
   151   161   162    1
   152    33    34    1
   153    37    34    1
   154    34    35    1
   155   162   163    2
   156   135   134    1
   157    35    36    2
   158   123   122   ar
   159   123   121   ar
   160   133   134   ar
   161   133   131   ar
   162   134   132   ar
   163   122   120   ar
   164   121   119   ar
   165   131   129   ar
   166   132   130   ar
   167   120   119   ar
   168   119   118    1
   169   129   130   ar
   170   129   128    1
   171   115   118    1
   172   115   114    1
   173   115   116    1
   174   128   125    1
   175   124   125    1
   176   116   117    2
   177   125   126    1
   178   126   127    2
