@<TRIPOS>MOLECULE
tmp/2zt7A00.pdb
 212 199 0 0 0
SMALL
GASTEIGER

@<TRIPOS>ATOM
      1  N         40.1340  -10.9610   79.9010 N.3    81  PHE81      -0.1241
      2  CA        39.2370  -11.1880   78.7700 C.3    81  PHE81       0.1605
      3  C         40.0160  -11.6720   77.5540 C.2    81  PHE81       0.2264
      4  O         40.4290  -10.8750   76.7100 O.2    81  PHE81      -0.2867
      5  CB        38.4850   -9.9050   78.4120 C.3    81  PHE81       0.0534
      6  CG        37.4100  -10.1030   77.3810 C.ar   81  PHE81      -0.0203
      7  CD1       36.2580  -10.8200   77.6870 C.ar   81  PHE81      -0.0042
      8  CD2       37.5520   -9.5820   76.1000 C.ar   81  PHE81      -0.0042
      9  CE1       35.2610  -11.0150   76.7320 C.ar   81  PHE81      -0.0003
     10  CE2       36.5620   -9.7720   75.1400 C.ar   81  PHE81      -0.0003
     11  CZ        35.4130  -10.4900   75.4580 C.ar   81  PHE81      -0.0000
     12  N         41.2010  -15.5910   75.0710 N.3    83  ASP83      -0.1239
     13  CA        41.0370  -17.0010   74.7400 C.3    83  ASP83       0.1674
     14  C         42.4110  -17.6040   74.5110 C.2    83  ASP83       0.2266
     15  O         43.3170  -16.9290   74.0260 O.2    83  ASP83      -0.2867
     16  CB        40.2010  -17.1690   73.4680 C.3    83  ASP83       0.1410
     17  CG        38.7130  -17.1670   73.7410 C.2    83  ASP83       0.3668
     18  OD1       37.9340  -17.2130   72.7660 O.co2  83  ASP83      -0.2456
     19  OD2       38.3230  -17.1290   74.9270 O.co2  83  ASP83      -0.2456
     20  N         41.9470  -21.4820   68.1770 N.3    96  ARG96      -0.1245
     21  CA        41.5190  -21.3800   69.5630 C.3    96  ARG96       0.1563
     22  C         41.7180  -22.7440   70.2120 C.2    96  ARG96       0.2260
     23  O         40.9400  -23.6700   69.9830 O.2    96  ARG96      -0.2867
     24  CB        40.0490  -20.9670   69.6630 C.3    96  ARG96       0.0307
     25  CG        39.5280  -21.0190   71.0920 C.3    96  ARG96       0.0489
     26  CD        38.1290  -20.4540   71.2390 C.3    96  ARG96       0.2205
     27  NE        37.6030  -20.7090   72.5780 N.pl3  96  ARG96      -0.0865
     28  CZ        36.4730  -20.1950   73.0530 C.cat  96  ARG96       0.5346
     29  NH1       35.7400  -19.3870   72.3000 N.pl3  96  ARG96       0.1354
     30  NH2       36.0720  -20.4950   74.2810 N.pl3  96  ARG96       0.1354
     31  N         38.7430  -24.8980   71.6150 N.3    99  HIS99      -0.1241
     32  CA        37.9410  -25.6480   70.6530 C.3    99  HIS99       0.1621
     33  C         38.6930  -26.7130   69.8640 C.2    99  HIS99       0.2264
     34  O         38.1980  -27.8270   69.7000 O.2    99  HIS99      -0.2867
     35  CB        37.2690  -24.6790   69.6790 C.3    99  HIS99       0.0745
     36  CG        36.2890  -23.7530   70.3300 C.ar   99  HIS99       0.0817
     37  ND1       35.6730  -22.7240   69.6510 N.ar   99  HIS99      -0.2268
     38  CD2       35.8110  -23.7080   71.5960 C.ar   99  HIS99       0.1154
     39  CE1       34.8570  -22.0850   70.4700 C.ar   99  HIS99       0.1986
     40  NE2       34.9220  -22.6630   71.6560 N.ar   99  HIS99      -0.2212
     41  N         35.9990  -25.8240   79.6500 N.3   130  ASP130     -0.1239
     42  CA        35.9880  -24.4220   80.0520 C.3   130  ASP130      0.1674
     43  C         36.6380  -24.2040   81.4160 C.2   130  ASP130      0.2266
     44  O         36.7320  -23.0730   81.8950 O.2   130  ASP130     -0.2867
     45  CB        34.5500  -23.8960   80.0770 C.3   130  ASP130      0.1410
     46  CG        33.8550  -24.0260   78.7310 C.2   130  ASP130      0.3668
     47  OD1       34.3430  -23.4330   77.7450 O.co2 130  ASP130     -0.2456
     48  OD2       32.8200  -24.7220   78.6610 O.co2 130  ASP130     -0.2456
     49  N         40.8340  -10.6720   73.4210 N.3   163  LEU163     -0.1245
     50  CA        39.8450  -10.5770   72.3510 C.3   163  LEU163      0.1561
     51  C         39.3480   -9.1750   72.0040 C.2   163  LEU163      0.2260
     52  O         38.4830   -9.0260   71.1420 O.2   163  LEU163     -0.2867
     53  CB        38.6460  -11.4630   72.6940 C.3   163  LEU163      0.0270
     54  CG        38.9300  -12.9630   72.7790 C.3   163  LEU163      0.0019
     55  CD1       37.7580  -13.6840   73.4230 C.3   163  LEU163      0.0001
     56  CD2       39.2000  -13.5000   71.3840 C.3   163  LEU163      0.0001
     57  N         34.2780   -8.4320   69.2620 N.3   214  ARG214     -0.1245
     58  CA        35.0860   -9.5090   69.8170 C.3   214  ARG214      0.1563
     59  C         36.0480   -9.9590   68.7240 C.2   214  ARG214      0.2260
     60  O         35.6360  -10.5930   67.7540 O.2   214  ARG214     -0.2867
     61  CB        34.1870  -10.6770   70.2290 C.3   214  ARG214      0.0307
     62  CG        32.9970  -10.2730   71.0870 C.3   214  ARG214      0.0489
     63  CD        33.3320  -10.2480   72.5660 C.3   214  ARG214      0.2205
     64  NE        33.0010  -11.5140   73.2150 N.pl3 214  ARG214     -0.0865
     65  CZ        32.0490  -11.6560   74.1330 C.cat 214  ARG214      0.5346
     66  NH1       31.3320  -10.6080   74.5140 N.pl3 214  ARG214      0.1354
     67  NH2       31.8110  -12.8450   74.6710 N.pl3 214  ARG214      0.1354
     68  N         37.4990  -12.2570   67.7670 N.3   216  GLU216     -0.1245
     69  CA        37.5480  -13.7120   67.7960 C.3   216  GLU216      0.1567
     70  C         38.7650  -14.2270   67.0330 C.2   216  GLU216      0.2260
     71  O         39.0890  -13.7330   65.9510 O.2   216  GLU216     -0.2867
     72  CB        36.2620  -14.2860   67.1930 C.3   216  GLU216      0.0388
     73  CG        35.5790  -15.3550   68.0440 C.3   216  GLU216      0.1160
     74  CD        35.0860  -14.8280   69.3830 C.2   216  GLU216      0.3649
     75  OE1       34.3520  -13.8170   69.3910 O.co2 216  GLU216     -0.2457
     76  OE2       35.4260  -15.4280   70.4260 O.co2 216  GLU216     -0.2457
     77  N         27.2370  -17.5270   61.6620 N.3   223  LEU223     -0.1231
     78  CA        26.7360  -16.4640   62.5280 C.3   223  LEU223      0.1693
     79  C         26.9370  -16.7440   64.0130 C.2   223  LEU223      0.2592
     80  O         26.7120  -15.8650   64.8420 O.2   223  LEU223     -0.2718
     81  CB        25.2500  -16.2080   62.2620 C.3   223  LEU223      0.0284
     82  CG        24.8910  -15.5050   60.9510 C.3   223  LEU223      0.0019
     83  CD1       23.3810  -15.3340   60.8640 C.3   223  LEU223      0.0001
     84  CD2       25.5840  -14.1480   60.8830 C.3   223  LEU223      0.0001
     85  N         27.3540  -17.9610   64.3530 N.am  224  ILE224     -0.1966
     86  CA        27.5750  -18.3120   65.7530 C.3   224  ILE224      0.1727
     87  C         28.8020  -17.5930   66.2990 C.2   224  ILE224      0.2616
     88  O         28.8380  -17.2130   67.4680 O.2   224  ILE224     -0.2715
     89  CB        27.7650  -19.8350   65.9370 C.3   224  ILE224      0.0290
     90  CG1       26.4750  -20.5700   65.5680 C.3   224  ILE224      0.0022
     91  CG2       28.1450  -20.1460   67.3780 C.3   224  ILE224      0.0023
     92  CD1       25.2670  -20.1150   66.3570 C.3   224  ILE224      0.0001
     93  N         29.8050  -17.4090   65.4470 N.am  225  ARG225     -0.1963
     94  CA        31.0310  -16.7260   65.8400 C.3   225  ARG225      0.1729
     95  C         31.3500  -15.5580   64.9280 C.2   225  ARG225      0.2616
     96  O         31.8860  -15.7400   63.8350 O.2   225  ARG225     -0.2715
     97  CB        32.2160  -17.6880   65.8320 C.3   225  ARG225      0.0348
     98  CG        32.3820  -18.4630   67.1090 C.3   225  ARG225      0.0492
     99  CD        33.7850  -18.2860   67.6560 C.3   225  ARG225      0.2205
    100  NE        33.7600  -18.0370   69.0910 N.pl3 225  ARG225     -0.0865
    101  CZ        33.1990  -18.8520   69.9780 C.cat 225  ARG225      0.5346
    102  NH1       32.6160  -19.9760   69.5790 N.pl3 225  ARG225      0.1354
    103  NH2       33.2130  -18.5360   71.2640 N.pl3 225  ARG225      0.1354
    104  N         31.0180  -14.3570   65.3820 N.am  226  VAL226     -0.1977
    105  CA        31.2870  -13.1540   64.6150 C.3   226  VAL226      0.1596
    106  C         32.1760  -12.2420   65.4470 C.2   226  VAL226      0.2287
    107  O         32.3000  -12.4200   66.6580 O.2   226  VAL226     -0.2864
    108  CB        29.9830  -12.4130   64.2560 C.3   226  VAL226      0.0276
    109  CG1       29.1350  -13.2740   63.3340 C.3   226  VAL226      0.0022
    110  CG2       29.2120  -12.0750   65.5190 C.3   226  VAL226      0.0022
    111  N         28.6420   -7.9430   66.6190 N.3   229  PHE229     -0.1241
    112  CA        27.2520   -8.3550   66.7550 C.3   229  PHE229      0.1605
    113  C         26.4350   -7.4570   67.6730 C.2   229  PHE229      0.2264
    114  O         26.9790   -6.6970   68.4750 O.2   229  PHE229     -0.2867
    115  CB        27.1760   -9.7980   67.2650 C.3   229  PHE229      0.0534
    116  CG        27.9020  -10.0250   68.5610 C.ar  229  PHE229     -0.0203
    117  CD1       29.2910  -10.0840   68.5950 C.ar  229  PHE229     -0.0042
    118  CD2       27.1980  -10.1720   69.7520 C.ar  229  PHE229     -0.0042
    119  CE1       29.9680  -10.2870   69.7940 C.ar  229  PHE229     -0.0003
    120  CE2       27.8670  -10.3760   70.9580 C.ar  229  PHE229     -0.0003
    121  CZ        29.2550  -10.4330   70.9780 C.ar  229  PHE229     -0.0000
    122  N         23.9270   -7.0610   70.7450 N.3   231  MET231     -0.1245
    123  CA        23.5450   -7.7860   71.9440 C.3   231  MET231      0.1570
    124  C         22.6950   -6.9190   72.8620 C.2   231  MET231      0.2261
    125  O         22.9200   -5.7160   72.9850 O.2   231  MET231     -0.2867
    126  CB        24.7890   -8.2860   72.6870 C.3   231  MET231      0.0387
    127  CG        25.6070   -7.2100   73.3750 C.3   231  MET231      0.0595
    128  SD        27.1420   -7.8850   74.0480 S.3   231  MET231     -0.1393
    129  CE        26.5300   -9.2380   75.0200 C.3   231  MET231      0.0692
    130  N         27.7620  -22.6310   85.1520 N.3   315  HIS315     -0.1241
    131  CA        29.2110  -22.5830   85.0210 C.3   315  HIS315      0.1621
    132  C         29.9410  -23.3850   86.0880 C.2   315  HIS315      0.2264
    133  O         29.3720  -23.7400   87.1200 O.2   315  HIS315     -0.2867
    134  CB        29.7050  -21.1350   85.0480 C.3   315  HIS315      0.0745
    135  CG        29.4850  -20.3950   83.7660 C.ar  315  HIS315      0.0817
    136  ND1       29.9980  -19.1360   83.5390 N.ar  315  HIS315     -0.2268
    137  CD2       28.8190  -20.7400   82.6390 C.ar  315  HIS315      0.1154
    138  CE1       29.6590  -18.7380   82.3260 C.ar  315  HIS315      0.1986
    139  NE2       28.9430  -19.6920   81.7590 N.ar  315  HIS315     -0.2212
    140  N         34.4160  -11.3930   86.1490 N.3   323  TYR323     -0.1241
    141  CA        33.5240  -10.5000   86.8820 C.3   323  TYR323      0.1605
    142  C         32.3520  -11.2180   87.5430 C.2   323  TYR323      0.2264
    143  O         31.5170  -10.5820   88.1840 O.2   323  TYR323     -0.2867
    144  CB        32.9810   -9.4250   85.9360 C.3   323  TYR323      0.0534
    145  CG        32.4210   -9.9870   84.6440 C.ar  323  TYR323     -0.0201
    146  CD1       31.3240  -10.8510   84.6460 C.ar  323  TYR323     -0.0009
    147  CD2       33.0160   -9.6860   83.4200 C.ar  323  TYR323     -0.0009
    148  CE1       30.8390  -11.4050   83.4610 C.ar  323  TYR323      0.0417
    149  CE2       32.5400  -10.2330   82.2320 C.ar  323  TYR323      0.0417
    150  CZ        31.4540  -11.0910   82.2590 C.ar  323  TYR323      0.1957
    151  OH        30.9920  -11.6380   81.0830 O.3   323  TYR323     -0.2866
    152  N         23.9970  -20.2880   81.5730 N.3   329  ASP329     -0.1239
    153  CA        23.8840  -19.9740   80.1580 C.3   329  ASP329      0.1674
    154  C         22.7510  -20.7580   79.5240 C.2   329  ASP329      0.2266
    155  O         22.5710  -21.9440   79.8000 O.2   329  ASP329     -0.2867
    156  CB        25.1870  -20.3090   79.4260 C.3   329  ASP329      0.1410
    157  CG        26.3190  -19.3680   79.7800 C.2   329  ASP329      0.3668
    158  OD1       27.4530  -19.6050   79.3090 O.co2 329  ASP329     -0.2456
    159  OD2       26.0780  -18.3920   80.5210 O.co2 329  ASP329     -0.2456
    160  N         26.0820  -21.4310   73.8540 N.3   340  GLU340     -0.1231
    161  CA        25.4050  -20.4420   74.6820 C.3   340  GLU340      0.1699
    162  C         24.8570  -19.3150   73.8140 C.2   340  GLU340      0.2592
    163  O         25.5720  -18.7500   72.9840 O.2   340  GLU340     -0.2718
    164  CB        26.3600  -19.8830   75.7500 C.3   340  GLU340      0.0402
    165  CG        26.8850  -18.4760   75.4850 C.3   340  GLU340      0.1161
    166  CD        27.7200  -17.9330   76.6310 C.2   340  GLU340      0.3649
    167  OE1       28.7900  -18.5120   76.9210 O.co2 340  GLU340     -0.2457
    168  OE2       27.3060  -16.9250   77.2440 O.co2 340  GLU340     -0.2457
    169  N         23.5790  -19.0040   74.0000 N.am  341  ILE341     -0.1966
    170  CA        22.9400  -17.9420   73.2370 C.3   341  ILE341      0.1727
    171  C         22.5010  -16.8110   74.1620 C.2   341  ILE341      0.2616
    172  O         22.2370  -15.6960   73.7140 O.2   341  ILE341     -0.2715
    173  CB        21.7220  -18.4780   72.4460 C.3   341  ILE341      0.0290
    174  CG1       20.7300  -19.1550   73.3940 C.3   341  ILE341      0.0022
    175  CG2       22.1920  -19.4600   71.3830 C.3   341  ILE341      0.0023
    176  CD1       19.5170  -19.7440   72.6970 C.3   341  ILE341      0.0001
    177  N         22.4290  -17.1100   75.4550 N.am  342  VAL342     -0.1963
    178  CA        22.0460  -16.1250   76.4650 C.3   342  VAL342      0.1727
    179  C         22.7790  -16.4480   77.7640 C.2   342  VAL342      0.2616
    180  O         22.6380  -17.5430   78.3080 O.2   342  VAL342     -0.2715
    181  CB        20.5270  -16.1450   76.7520 C.3   342  VAL342      0.0290
    182  CG1       20.1720  -15.0260   77.7170 C.3   342  VAL342      0.0023
    183  CG2       19.7440  -16.0010   75.4610 C.3   342  VAL342      0.0023
    184  N         23.5640  -15.4950   78.2550 N.am  343  GLY343     -0.1955
    185  CA        24.3040  -15.7130   79.4830 C.3   343  GLY343      0.1869
    186  C         23.7590  -14.9200   80.6530 C.2   343  GLY343      0.2309
    187  O         23.8600  -13.6940   80.6780 O.2   343  GLY343     -0.2863
    188  N         22.4530  -11.5300   79.5150 N.3   381  SER381     -0.1217
    189  CA        23.0710  -11.0470   78.2840 C.3   381  SER381      0.1889
    190  C         22.5950  -11.8190   77.0570 C.2   381  SER381      0.2288
    191  O         22.8480  -13.0160   76.9310 O.2   381  SER381     -0.2866
    192  CB        24.5910  -11.1430   78.3990 C.3   381  SER381      0.2089
    193  OG        25.2200  -10.5350   77.2880 O.3   381  SER381     -0.2183
    194  N         22.5560  -12.5560   72.9810 N.3   383  GLY383     -0.1225
    195  CA        23.2810  -12.4340   71.7310 C.3   383  GLY383      0.1811
    196  C         22.2540  -12.5950   70.6290 C.2   383  GLY383      0.2280
    197  O         22.0260  -13.6990   70.1360 O.2   383  GLY383     -0.2866
    198  N         22.3110  -12.3180   67.7310 N.3   385  GLY385     -0.1210
    199  CA        22.7990  -12.9770   66.5350 C.3   385  GLY385      0.1956
    200  C         22.6220  -14.4830   66.6060 C.2   385  GLY385      0.2611
    201  O         22.0610  -15.0910   65.6950 O.2   385  GLY385     -0.2717
    202  N         23.0990  -15.0830   67.6940 N.am  386  ARG386     -0.1979
    203  CA        22.9990  -16.5260   67.8930 C.3   386  ARG386      0.1597
    204  C         21.5600  -16.9820   68.1050 C.2   386  ARG386      0.2287
    205  O         21.1900  -18.0940   67.7280 O.2   386  ARG386     -0.2864
    206  CB        23.8450  -16.9570   69.0920 C.3   386  ARG386      0.0334
    207  CG        25.3260  -16.6640   68.9450 C.3   386  ARG386      0.0492
    208  CD        26.1310  -17.3300   70.0490 C.3   386  ARG386      0.2205
    209  NE        27.5580  -17.0500   69.9180 N.pl3 386  ARG386     -0.0865
    210  CZ        28.4920  -17.5170   70.7400 C.cat 386  ARG386      0.5346
    211  NH1       28.1550  -18.2930   71.7590 N.pl3 386  ARG386      0.1354
    212  NH2       29.7630  -17.1990   70.5460 N.pl3 386  ARG386      0.1354
@<TRIPOS>BOND
     1    83    82    1
     2    84    82    1
     3    82    81    1
     4    77    78    1
     5    81    78    1
     6    78    79    1
     7   109   108    1
     8    96    95    2
     9    79    85   am
    10    79    80    2
    11   108   105    1
    12   108   110    1
    13    85    86    1
    14   105   104    1
    15   105   106    1
    16    95   104   am
    17    95    94    1
    18   106   107    2
    19    93    94    1
    20    93    87   am
    21    90    89    1
    22    90    92    1
    23   201   200    2
    24    86    89    1
    25    86    87    1
    26    97    94    1
    27    97    98    1
    28    89    91    1
    29    71    70    2
    30    87    88    2
    31   199   200    1
    32   199   198    1
    33   200   202   am
    34   111   112    1
    35   112   115    1
    36   112   113    1
    37    70    69    1
    38    98    99    1
    39    72    69    1
    40    72    73    1
    41   115   116    1
    42    99   100    1
    43   113   114    2
    44   202   203    1
    45   205   204    2
    46    60    59    2
    47    68    69    1
    48   203   204    1
    49   203   206    1
    50    73    74    1
    51    20    21    1
    52   116   117   ar
    53   116   118   ar
    54   117   119   ar
    55    59    58    1
    56   207   206    1
    57   207   208    1
    58   100   101    2
    59    57    58    1
    60    74    75   ar
    61    74    76   ar
    62    21    24    1
    63    21    22    1
    64   102   101    1
    65    37    36   ar
    66    37    39   ar
    67    24    25    1
    68    35    36    1
    69    35    32    1
    70    34    33    2
    71   118   120   ar
    72   119   121   ar
    73    58    61    1
    74    33    32    1
    75   209   208    1
    76   209   210    2
    77   101   103    1
    78    23    22    2
    79   197   196    2
    80    61    62    1
    81    36    38   ar
    82    39    40   ar
    83   212   210    1
    84   196   195    1
    85    32    31    1
    86   210   211    1
    87   122   123    1
    88   120   121   ar
    89    62    63    1
    90    25    26    1
    91    52    51    2
    92    26    27    1
    93   175   173    1
    94    56    54    1
    95    38    40   ar
    96   195   194    1
    97   123   126    1
    98   123   124    1
    99    51    50    1
   100    29    28    1
   101    50    53    1
   102    50    49    1
   103   173   170    1
   104   173   174    1
   105    63    64    1
   106    27    28    2
   107   126   127    1
   108    53    54    1
   109   176   174    1
   110    18    17   ar
   111    54    55    1
   112   124   125    2
   113   163   162    2
   114    28    30    1
   115    64    65    2
   116   170   169    1
   117   170   171    1
   118   127   128    1
   119    16    17    1
   120    16    13    1
   121   172   171    2
   122    17    19   ar
   123   162   169   am
   124   162   161    1
   125   160   161    1
   126    15    14    2
   127   128   129    1
   128    65    66    1
   129    65    67    1
   130   171   177   am
   131    14    13    1
   132   161   164    1
   133    13    12    1
   134    10    11   ar
   135    10     8   ar
   136   177   178    1
   137    11     9   ar
   138   183   181    1
   139   165   164    1
   140   165   166    1
   141     8     6   ar
   142   178   181    1
   143   178   179    1
   144   166   167   ar
   145   166   168   ar
   146     4     3    2
   147     9     7   ar
   148   181   182    1
   149   191   190    2
   150   190   189    1
   151   193   192    1
   152     6     7   ar
   153     6     5    1
   154     3     2    1
   155    47    46   ar
   156   179   184   am
   157   179   180    2
   158   184   185    1
   159   189   192    1
   160   189   188    1
   161     5     2    1
   162    48    46   ar
   163    46    45    1
   164     2     1    1
   165   158   157   ar
   166   156   157    1
   167   156   153    1
   168   185   186    1
   169   154   155    2
   170   154   153    1
   171    41    42    1
   172   157   159   ar
   173    42    45    1
   174    42    43    1
   175   153   152    1
   176   186   187    2
   177   151   150    1
   178    43    44    2
   179   139   138   ar
   180   139   137   ar
   181   149   150   ar
   182   149   147   ar
   183   150   148   ar
   184   138   136   ar
   185   137   135   ar
   186   147   145   ar
   187   148   146   ar
   188   136   135   ar
   189   135   134    1
   190   145   146   ar
   191   145   144    1
   192   131   134    1
   193   131   130    1
   194   131   132    1
   195   144   141    1
   196   132   133    2
   197   140   141    1
   198   141   142    1
   199   142   143    2
