@<TRIPOS>MOLECULE
tmp/2zt8A00.pdb
 206 195 0 0 0
SMALL
GASTEIGER

@<TRIPOS>ATOM
      1  N         39.8180  -11.1560   79.9050 N.3    81  PHE81      -0.1241
      2  CA        38.9760  -11.3560   78.7290 C.3    81  PHE81       0.1605
      3  C         39.7580  -11.7590   77.4870 C.2    81  PHE81       0.2264
      4  O         40.2760  -10.9100   76.7610 O.2    81  PHE81      -0.2867
      5  CB        38.1540  -10.1000   78.4340 C.3    81  PHE81       0.0534
      6  CG        37.0450  -10.3260   77.4470 C.ar   81  PHE81      -0.0203
      7  CD1       36.1420  -11.3700   77.6290 C.ar   81  PHE81      -0.0042
      8  CD2       36.8980   -9.5010   76.3390 C.ar   81  PHE81      -0.0042
      9  CE1       35.1100  -11.5900   76.7220 C.ar   81  PHE81      -0.0003
     10  CE2       35.8670   -9.7130   75.4250 C.ar   81  PHE81      -0.0003
     11  CZ        34.9730  -10.7600   75.6180 C.ar   81  PHE81      -0.0000
     12  N         30.8700   -5.7920   75.5750 N.3   182  GLU182     -0.1245
     13  CA        29.5700   -5.9540   76.2170 C.3   182  GLU182      0.1567
     14  C         29.0080   -4.5600   76.4640 C.2   182  GLU182      0.2260
     15  O         29.7620   -3.5960   76.5820 O.2   182  GLU182     -0.2867
     16  CB        29.7000   -6.7080   77.5440 C.3   182  GLU182      0.0388
     17  CG        30.5840   -6.0290   78.5770 C.3   182  GLU182      0.1160
     18  CD        30.5420   -6.7240   79.9260 C.2   182  GLU182      0.3649
     19  OE1       30.6910   -7.9640   79.9620 O.co2 182  GLU182     -0.2457
     20  OE2       30.3680   -6.0300   80.9510 O.co2 182  GLU182     -0.2457
     21  N         33.7710   -8.3770   69.4320 N.3   214  ARG214     -0.1245
     22  CA        34.5950   -9.4270   70.0110 C.3   214  ARG214      0.1563
     23  C         35.5080  -10.0170   68.9410 C.2   214  ARG214      0.2260
     24  O         35.1070  -10.8990   68.1830 O.2   214  ARG214     -0.2867
     25  CB        33.6970  -10.5150   70.6030 C.3   214  ARG214      0.0307
     26  CG        32.6190   -9.9600   71.5200 C.3   214  ARG214      0.0489
     27  CD        32.9060  -10.2340   72.9860 C.3   214  ARG214      0.2205
     28  NE        32.2540  -11.4580   73.4450 N.pl3 214  ARG214     -0.0865
     29  CZ        31.3590  -11.5040   74.4290 C.cat 214  ARG214      0.5346
     30  NH1       31.0070  -10.3940   75.0650 N.pl3 214  ARG214      0.1354
     31  NH2       30.8110  -12.6610   74.7750 N.pl3 214  ARG214      0.1354
     32  N         37.1220  -12.2960   67.7020 N.3   216  GLU216     -0.1245
     33  CA        37.2760  -13.7390   67.8220 C.3   216  GLU216      0.1567
     34  C         38.4840  -14.1810   66.9980 C.2   216  GLU216      0.2260
     35  O         38.9350  -13.4580   66.1080 O.2   216  GLU216     -0.2867
     36  CB        36.0110  -14.4380   67.3180 C.3   216  GLU216      0.0388
     37  CG        35.4810  -15.5540   68.2160 C.3   216  GLU216      0.1160
     38  CD        34.9750  -15.0510   69.5580 C.2   216  GLU216      0.3649
     39  OE1       34.3050  -13.9970   69.5870 O.co2 216  GLU216     -0.2457
     40  OE2       35.2350  -15.7190   70.5820 O.co2 216  GLU216     -0.2457
     41  N         26.9920  -17.7870   61.5090 N.3   223  LEU223     -0.1231
     42  CA        26.4720  -16.6410   62.2520 C.3   223  LEU223      0.1693
     43  C         26.7010  -16.7940   63.7530 C.2   223  LEU223      0.2592
     44  O         26.7190  -15.8060   64.4870 O.2   223  LEU223     -0.2718
     45  CB        24.9740  -16.4600   61.9900 C.3   223  LEU223      0.0284
     46  CG        24.5500  -15.6220   60.7810 C.3   223  LEU223      0.0019
     47  CD1       23.0340  -15.6330   60.6570 C.3   223  LEU223      0.0001
     48  CD2       25.0560  -14.1960   60.9430 C.3   223  LEU223      0.0001
     49  N         26.8770  -18.0350   64.1990 N.am  224  ILE224     -0.1966
     50  CA        27.0960  -18.3410   65.6120 C.3   224  ILE224      0.1727
     51  C         28.2990  -17.6190   66.2150 C.2   224  ILE224      0.2616
     52  O         28.2290  -17.1170   67.3350 O.2   224  ILE224     -0.2715
     53  CB        27.2800  -19.8570   65.8230 C.3   224  ILE224      0.0290
     54  CG1       26.0270  -20.6000   65.3550 C.3   224  ILE224      0.0022
     55  CG2       27.5530  -20.1520   67.2900 C.3   224  ILE224      0.0023
     56  CD1       24.7740  -20.2210   66.1100 C.3   224  ILE224      0.0001
     57  N         29.4050  -17.5850   65.4800 N.am  225  ARG225     -0.1963
     58  CA        30.6130  -16.9120   65.9440 C.3   225  ARG225      0.1729
     59  C         30.8960  -15.6980   65.0710 C.2   225  ARG225      0.2616
     60  O         31.3030  -15.8410   63.9190 O.2   225  ARG225     -0.2715
     61  CB        31.8110  -17.8620   65.8940 C.3   225  ARG225      0.0348
     62  CG        32.1010  -18.5630   67.2050 C.3   225  ARG225      0.0492
     63  CD        33.5280  -18.2920   67.6550 C.3   225  ARG225      0.2205
     64  NE        33.6020  -18.0490   69.0930 N.pl3 225  ARG225     -0.0865
     65  CZ        33.2040  -18.9130   70.0220 C.cat 225  ARG225      0.5346
     66  NH1       32.7010  -20.0900   69.6670 N.pl3 225  ARG225      0.1354
     67  NH2       33.3010  -18.5960   71.3060 N.pl3 225  ARG225      0.1354
     68  N         30.6840  -14.5040   65.6150 N.am  226  VAL226     -0.1977
     69  CA        30.9180  -13.2830   64.8540 C.3   226  VAL226      0.1596
     70  C         31.6860  -12.2260   65.6440 C.2   226  VAL226      0.2287
     71  O         31.5410  -12.1160   66.8610 O.2   226  VAL226     -0.2864
     72  CB        29.5870  -12.6830   64.3620 C.3   226  VAL226      0.0276
     73  CG1       28.9620  -13.5990   63.3230 C.3   226  VAL226      0.0022
     74  CG2       28.6370  -12.5010   65.5320 C.3   226  VAL226      0.0022
     75  N         28.3270   -7.9550   66.8650 N.3   229  PHE229     -0.1241
     76  CA        26.9330   -8.3480   66.9830 C.3   229  PHE229      0.1605
     77  C         26.0800   -7.4770   67.8930 C.2   229  PHE229      0.2264
     78  O         26.5850   -6.7350   68.7380 O.2   229  PHE229     -0.2867
     79  CB        26.8350   -9.8050   67.4420 C.3   229  PHE229      0.0534
     80  CG        27.6380  -10.1100   68.6720 C.ar  229  PHE229     -0.0203
     81  CD1       28.8730  -10.7390   68.5720 C.ar  229  PHE229     -0.0042
     82  CD2       27.1610   -9.7690   69.9320 C.ar  229  PHE229     -0.0042
     83  CE1       29.6210  -11.0250   69.7110 C.ar  229  PHE229     -0.0003
     84  CE2       27.9020  -10.0500   71.0770 C.ar  229  PHE229     -0.0003
     85  CZ        29.1340  -10.6800   70.9650 C.ar  229  PHE229     -0.0000
     86  N         23.4540   -7.1460   70.8550 N.3   231  MET231     -0.1245
     87  CA        23.0520   -7.8890   72.0380 C.3   231  MET231      0.1570
     88  C         22.2060   -7.0390   72.9760 C.2   231  MET231      0.2261
     89  O         22.4830   -5.8570   73.1910 O.2   231  MET231     -0.2867
     90  CB        24.2840   -8.4290   72.7740 C.3   231  MET231      0.0387
     91  CG        25.1060   -7.3910   73.5160 C.3   231  MET231      0.0595
     92  SD        26.7040   -8.0590   74.0270 S.3   231  MET231     -0.1393
     93  CE        26.2080   -9.5040   74.9470 C.3   231  MET231      0.0692
     94  N         21.0010   -6.4070   76.6730 N.3   233  GLU233     -0.1245
     95  CA        21.4560   -6.7040   78.0220 C.3   233  GLU233      0.1567
     96  C         20.6850   -5.9600   79.1010 C.2   233  GLU233      0.2260
     97  O         20.4810   -4.7490   79.0180 O.2   233  GLU233     -0.2867
     98  CB        22.9500   -6.3980   78.1390 C.3   233  GLU233      0.0388
     99  CG        23.7780   -7.0940   77.0740 C.3   233  GLU233      0.1160
    100  CD        25.2430   -7.2010   77.4360 C.2   233  GLU233      0.3649
    101  OE1       25.9390   -6.1640   77.4640 O.co2 233  GLU233     -0.2457
    102  OE2       25.6960   -8.3340   77.6980 O.co2 233  GLU233     -0.2457
    103  N         33.7720  -11.9250   85.9290 N.3   323  TYR323     -0.1241
    104  CA        32.9940  -10.9630   86.7040 C.3   323  TYR323      0.1605
    105  C         31.8150  -11.5740   87.4520 C.2   323  TYR323      0.2264
    106  O         31.0770  -10.8640   88.1350 O.2   323  TYR323     -0.2867
    107  CB        32.4900   -9.8360   85.7910 C.3   323  TYR323      0.0534
    108  CG        31.9300  -10.3100   84.4670 C.ar  323  TYR323     -0.0201
    109  CD1       30.8120  -11.1420   84.4120 C.ar  323  TYR323     -0.0009
    110  CD2       32.5350   -9.9400   83.2660 C.ar  323  TYR323     -0.0009
    111  CE1       30.3130  -11.5970   83.1920 C.ar  323  TYR323      0.0417
    112  CE2       32.0450  -10.3900   82.0430 C.ar  323  TYR323      0.0417
    113  CZ        30.9360  -11.2170   82.0130 C.ar  323  TYR323      0.1957
    114  OH        30.4590  -11.6680   80.8050 O.3   323  TYR323     -0.2866
    115  N         23.5400  -20.3860   81.6180 N.3   329  ASP329     -0.1239
    116  CA        23.3970  -20.0370   80.2130 C.3   329  ASP329      0.1674
    117  C         22.1900  -20.7530   79.6340 C.2   329  ASP329      0.2266
    118  O         21.7450  -21.7710   80.1630 O.2   329  ASP329     -0.2867
    119  CB        24.6400  -20.4480   79.4190 C.3   329  ASP329      0.1410
    120  CG        25.8160  -19.5200   79.6440 C.2   329  ASP329      0.3668
    121  OD1       26.9070  -19.8060   79.1050 O.co2 329  ASP329     -0.2456
    122  OD2       25.6530  -18.5050   80.3520 O.co2 329  ASP329     -0.2456
    123  N         25.5850  -21.6030   73.7560 N.3   340  GLU340     -0.1231
    124  CA        25.0250  -20.5800   74.6230 C.3   340  GLU340      0.1699
    125  C         24.4410  -19.4660   73.7630 C.2   340  GLU340      0.2592
    126  O         25.1310  -18.9070   72.9110 O.2   340  GLU340     -0.2718
    127  CB        26.1190  -20.0190   75.5320 C.3   340  GLU340      0.0402
    128  CG        27.2420  -19.3240   74.7800 C.3   340  GLU340      0.1161
    129  CD        28.4080  -18.9600   75.6730 C.2   340  GLU340      0.3649
    130  OE1       29.0830  -19.8870   76.1670 O.co2 340  GLU340     -0.2457
    131  OE2       28.6500  -17.7520   75.8840 O.co2 340  GLU340     -0.2457
    132  N         23.1680  -19.1510   73.9740 N.am  341  ILE341     -0.1966
    133  CA        22.5290  -18.0910   73.2050 C.3   341  ILE341      0.1727
    134  C         22.1170  -16.9250   74.0990 C.2   341  ILE341      0.2616
    135  O         22.0200  -15.7880   73.6390 O.2   341  ILE341     -0.2715
    136  CB        21.3020  -18.6190   72.4190 C.3   341  ILE341      0.0290
    137  CG1       20.3000  -19.2800   73.3660 C.3   341  ILE341      0.0022
    138  CG2       21.7600  -19.6110   71.3610 C.3   341  ILE341      0.0023
    139  CD1       19.0780  -19.8440   72.6620 C.3   341  ILE341      0.0001
    140  N         21.8820  -17.2110   75.3780 N.am  342  VAL342     -0.1963
    141  CA        21.5060  -16.1820   76.3460 C.3   342  VAL342      0.1727
    142  C         22.2340  -16.4640   77.6580 C.2   342  VAL342      0.2616
    143  O         22.2260  -17.5940   78.1440 O.2   342  VAL342     -0.2715
    144  CB        19.9900  -16.1770   76.6270 C.3   342  VAL342      0.0290
    145  CG1       19.6090  -14.9010   77.3570 C.3   342  VAL342      0.0023
    146  CG2       19.2120  -16.3080   75.3330 C.3   342  VAL342      0.0023
    147  N         22.8620  -15.4410   78.2280 N.am  343  GLY343     -0.1955
    148  CA        23.5860  -15.6270   79.4740 C.3   343  GLY343      0.1869
    149  C         22.9180  -14.9690   80.6660 C.2   343  GLY343      0.2309
    150  O         22.3650  -13.8770   80.5470 O.2   343  GLY343     -0.2863
    151  N         26.9180  -11.5120   88.6470 N.3   347  ARG347     -0.1245
    152  CA        28.0620  -10.6810   89.0030 C.3   347  ARG347      0.1563
    153  C         27.7680   -9.8700   90.2650 C.2   347  ARG347      0.2260
    154  O         27.1640   -8.8010   90.2060 O.2   347  ARG347     -0.2867
    155  CB        28.4070   -9.7560   87.8290 C.3   347  ARG347      0.0307
    156  CG        27.2010   -9.3130   87.0030 C.3   347  ARG347      0.0489
    157  CD        27.5870   -8.2600   85.9710 C.3   347  ARG347      0.2205
    158  NE        28.1320   -8.8150   84.7340 N.pl3 347  ARG347     -0.0865
    159  CZ        28.9310   -8.1430   83.9090 C.cat 347  ARG347      0.5346
    160  NH1       29.2880   -6.8990   84.1960 N.pl3 347  ARG347      0.1354
    161  NH2       29.3580   -8.7030   82.7860 N.pl3 347  ARG347      0.1354
    162  N         22.5640  -10.1720   85.6600 N.3   379  GLU379     -0.1245
    163  CA        22.4920   -9.7230   84.2750 C.3   379  GLU379      0.1567
    164  C         22.1340  -10.7180   83.1790 C.2   379  GLU379      0.2260
    165  O         22.9030  -11.6320   82.8760 O.2   379  GLU379     -0.2867
    166  CB        23.8140   -9.0520   83.8980 C.3   379  GLU379      0.0388
    167  CG        24.0580   -8.9690   82.4010 C.3   379  GLU379      0.1160
    168  CD        25.5150   -8.7480   82.0650 C.2   379  GLU379      0.3649
    169  OE1       25.9600   -7.5820   82.0460 O.co2 379  GLU379     -0.2457
    170  OE2       26.2200   -9.7510   81.8330 O.co2 379  GLU379     -0.2457
    171  N         21.9970  -11.5020   79.5570 N.3   381  SER381     -0.1202
    172  CA        22.5720  -11.0160   78.3080 C.3   381  SER381      0.2020
    173  C         22.0340  -11.8550   77.1590 C.2   381  SER381      0.2619
    174  O         22.1220  -13.0820   77.1810 O.2   381  SER381     -0.2717
    175  CB        24.0960  -11.1110   78.3560 C.3   381  SER381      0.2103
    176  OG        24.6670  -10.7160   77.1230 O.3   381  SER381     -0.2182
    177  N         21.4760  -11.1880   76.1560 N.am  382  PHE382     -0.1961
    178  CA        20.9090  -11.8900   75.0160 C.3   382  PHE382      0.1771
    179  C         21.7100  -11.7420   73.7370 C.2   382  PHE382      0.2620
    180  O         22.0350  -10.6330   73.3110 O.2   382  PHE382     -0.2715
    181  CB        19.4770  -11.4170   74.7690 C.3   382  PHE382      0.0574
    182  CG        18.5480  -11.6930   75.9100 C.ar  382  PHE382     -0.0200
    183  CD1       18.7850  -11.1370   77.1630 C.ar  382  PHE382     -0.0042
    184  CD2       17.4420  -12.5170   75.7390 C.ar  382  PHE382     -0.0042
    185  CE1       17.9370  -11.3960   78.2310 C.ar  382  PHE382     -0.0003
    186  CE2       16.5860  -12.7840   76.8010 C.ar  382  PHE382     -0.0003
    187  CZ        16.8350  -12.2210   78.0520 C.ar  382  PHE382     -0.0000
    188  N         22.0280  -12.8800   73.1350 N.am  383  GLY383     -0.1954
    189  CA        22.7620  -12.8770   71.8900 C.3   383  GLY383      0.1869
    190  C         21.7340  -12.9650   70.7860 C.2   383  GLY383      0.2309
    191  O         21.4940  -14.0360   70.2290 O.2   383  GLY383     -0.2863
    192  N         21.9090  -12.4770   68.0290 N.3   385  GLY385     -0.1210
    193  CA        22.4920  -13.1110   66.8640 C.3   385  GLY385      0.1956
    194  C         22.2190  -14.6010   66.8960 C.2   385  GLY385      0.2611
    195  O         21.4540  -15.1200   66.0820 O.2   385  GLY385     -0.2717
    196  N         22.8350  -15.2870   67.8530 N.am  386  ARG386     -0.1979
    197  CA        22.6700  -16.7290   68.0000 C.3   386  ARG386      0.1597
    198  C         21.2220  -17.1480   68.2300 C.2   386  ARG386      0.2287
    199  O         20.8450  -18.2800   67.9260 O.2   386  ARG386     -0.2864
    200  CB        23.5350  -17.2390   69.1540 C.3   386  ARG386      0.0334
    201  CG        25.0240  -17.0350   68.9450 C.3   386  ARG386      0.0492
    202  CD        25.8230  -17.5950   70.1060 C.3   386  ARG386      0.2205
    203  NE        27.2590  -17.4630   69.8850 N.pl3 386  ARG386     -0.0865
    204  CZ        28.1870  -17.8400   70.7580 C.cat 386  ARG386      0.5346
    205  NH1       27.8310  -18.3750   71.9170 N.pl3 386  ARG386      0.1354
    206  NH2       29.4720  -17.6830   70.4710 N.pl3 386  ARG386      0.1354
@<TRIPOS>BOND
     1    47    46    1
     2    46    48    1
     3    46    45    1
     4    41    42    1
     5    45    42    1
     6    42    43    1
     7    73    72    1
     8    43    49   am
     9    43    44    2
    10    60    59    2
    11    49    50    1
    12    72    69    1
    13    72    74    1
    14    69    68    1
    15    69    70    1
    16    59    68   am
    17    59    58    1
    18    54    53    1
    19    54    56    1
    20    57    58    1
    21    57    51   am
    22    50    53    1
    23    50    51    1
    24    70    71    2
    25    53    55    1
    26    61    58    1
    27    61    62    1
    28   195   194    2
    29    35    34    2
    30    51    52    2
    31   193   194    1
    32   193   192    1
    33    75    76    1
    34   194   196   am
    35    76    79    1
    36    76    77    1
    37    34    33    1
    38    62    63    1
    39    36    33    1
    40    36    37    1
    41    79    80    1
    42    63    64    1
    43    32    33    1
    44   196   197    1
    45    77    78    2
    46   199   198    2
    47   197   198    1
    48   197   200    1
    49    24    23    2
    50    37    38    1
    51    81    80   ar
    52    81    83   ar
    53    80    82   ar
    54    23    22    1
    55   201   200    1
    56   201   202    1
    57    64    65    2
    58    21    22    1
    59    38    39   ar
    60    38    40   ar
    61    66    65    1
    62    83    85   ar
    63   203   202    1
    64   203   204    2
    65    82    84   ar
    66    22    25    1
    67    65    67    1
    68   191   190    2
    69   206   204    1
    70    25    26    1
    71   204   205    1
    72   190   189    1
    73    86    87    1
    74    85    84   ar
    75   138   136    1
    76    26    27    1
    77   189   188    1
    78    87    90    1
    79    87    88    1
    80   136   133    1
    81   136   137    1
    82   139   137    1
    83    90    91    1
    84   126   125    2
    85    88    89    2
    86    27    28    1
    87   188   179   am
    88   133   132    1
    89   133   134    1
    90   180   179    2
    91    28    29    2
    92    91    92    1
    93   135   134    2
    94   179   178    1
    95   123   124    1
    96   125   132   am
    97   125   124    1
    98    92    93    1
    99   134   140   am
   100    29    31    1
   101    29    30    1
   102   124   127    1
   103   181   178    1
   104   181   182    1
   105   128   127    1
   106   128   129    1
   107   178   177    1
   108   146   144    1
   109   140   141    1
   110    10    11   ar
   111    10     8   ar
   112    12    13    1
   113    11     9   ar
   114   129   131   ar
   115   129   130   ar
   116   184   182   ar
   117   184   186   ar
   118   182   183   ar
   119   177   173   am
   120    13    14    1
   121    13    16    1
   122     8     6   ar
   123   141   144    1
   124   141   142    1
   125    14    15    2
   126   144   145    1
   127    94    95    1
   128     9     7   ar
   129     4     3    2
   130   186   187   ar
   131    99   100    1
   132    99    98    1
   133   176   175    1
   134   173   174    2
   135   173   172    1
   136   183   185   ar
   137   100   101   ar
   138   100   102   ar
   139     6     7   ar
   140     6     5    1
   141     3     2    1
   142    16    17    1
   143   142   143    2
   144   142   147   am
   145    95    98    1
   146    95    96    1
   147   187   185   ar
   148   147   148    1
   149   172   175    1
   150   172   171    1
   151     5     2    1
   152    17    18    1
   153     2     1    1
   154    97    96    2
   155   121   120   ar
   156   119   120    1
   157   119   116    1
   158   148   149    1
   159   117   118    2
   160   117   116    1
   161   120   122   ar
   162    18    19   ar
   163    18    20   ar
   164   116   115    1
   165   150   149    2
   166   114   113    1
   167   170   168   ar
   168   113   112   ar
   169   113   111   ar
   170   112   110   ar
   171   169   168   ar
   172   168   167    1
   173   167   166    1
   174   161   159    1
   175   165   164    2
   176   164   163    1
   177   111   109   ar
   178   110   108   ar
   179   166   163    1
   180   159   160    1
   181   159   158    2
   182   163   162    1
   183   109   108   ar
   184   108   107    1
   185   158   157    1
   186   107   104    1
   187   103   104    1
   188   157   156    1
   189   104   105    1
   190   156   155    1
   191   105   106    2
   192   155   152    1
   193   151   152    1
   194   152   153    1
   195   154   153    2
