@<TRIPOS>MOLECULE
tmp/2zthA00.pdb
 191 188 0 0 0
SMALL
GASTEIGER

@<TRIPOS>ATOM
      1  N          8.6740    5.2480   16.6330 N.3    34  VAL34      -0.1245
      2  CA         7.2950    5.2930   17.2050 C.3    34  VAL34       0.1561
      3  C          6.3200    4.6440   16.2180 C.2    34  VAL34       0.2260
      4  O          5.4570    5.3410   15.6690 O.2    34  VAL34      -0.2867
      5  CB         6.8440    6.7640   17.4690 C.3    34  VAL34       0.0252
      6  CG1        5.7430    6.8410   18.5530 C.3    34  VAL34       0.0019
      7  CG2        8.0520    7.6340   17.8340 C.3    34  VAL34       0.0019
      8  N         10.5120   17.5570   18.4090 N.3    57  LEU57      -0.1231
      9  CA        11.9540   17.4620   18.5670 C.3    57  LEU57       0.1693
     10  C         12.4510   16.1050   18.0190 C.2    57  LEU57       0.2593
     11  O         12.2390   15.0390   18.6230 O.2    57  LEU57      -0.2718
     12  CB        12.3000   17.6280   20.0570 C.3    57  LEU57       0.0284
     13  CG        12.5940   19.0110   20.6990 C.3    57  LEU57       0.0019
     14  CD1       12.3620   20.2250   19.8040 C.3    57  LEU57       0.0001
     15  CD2       11.9010   19.1860   22.0580 C.3    57  LEU57       0.0001
     16  N         13.1000   16.1360   16.8660 N.am   58  GLY58      -0.1942
     17  CA        13.5500   14.9040   16.2330 C.3    58  GLY58       0.2014
     18  C         12.5870   14.3440   15.2060 C.2    58  GLY58       0.2639
     19  O         11.6110   13.6680   15.5430 O.2    58  GLY58      -0.2714
     20  N         12.8430   14.6640   13.9460 N.am   59  ALA59      -0.1963
     21  CA        12.1130   14.0720   12.8130 C.3    59  ALA59       0.1728
     22  C         13.1390   13.1420   12.2830 C.2    59  ALA59       0.2616
     23  O         14.2380   13.5930   11.9310 O.2    59  ALA59      -0.2715
     24  CB        11.8040   15.1490   11.7470 C.3    59  ALA59       0.0334
     25  N         12.8810   11.8560   12.2200 N.am   60  TYR60      -0.1960
     26  CA        13.9810   11.0310   11.6790 C.3    60  TYR60       0.1771
     27  C         13.7680   11.0110   10.1630 C.2    60  TYR60       0.2619
     28  O         14.1610   11.9460    9.4470 O.2    60  TYR60      -0.2715
     29  CB        14.0510    9.6520   12.3870 C.3    60  TYR60       0.0574
     30  CG        14.8640    8.5580   11.7500 C.ar   60  TYR60      -0.0198
     31  CD1       16.1650    8.7870   11.2570 C.ar   60  TYR60      -0.0009
     32  CD2       14.3370    7.2620   11.6630 C.ar   60  TYR60      -0.0009
     33  CE1       16.9030    7.7560   10.6560 C.ar   60  TYR60       0.0417
     34  CE2       15.0590    6.2200   11.0780 C.ar   60  TYR60       0.0417
     35  CZ        16.3470    6.4650   10.5740 C.ar   60  TYR60       0.1957
     36  OH        17.0380    5.4010    9.9830 O.3    60  TYR60      -0.2866
     37  N         13.0800    9.9940    9.6820 N.am   61  CYS61      -0.1968
     38  CA        12.7190    9.9450    8.2840 C.3    61  CYS61       0.1712
     39  C         11.3530   10.5530    8.0070 C.2    61  CYS61       0.2296
     40  O         10.9220   10.5630    6.8770 O.2    61  CYS61      -0.2864
     41  CB        12.7950    8.5070    7.7840 C.3    61  CYS61       0.0983
     42  SG        14.5120    7.9420    7.8000 S.3    61  CYS61      -0.0798
     43  N          8.4180    9.9080   10.0880 N.3    63  TYR63      -0.1227
     44  CA         7.2430    9.1500   10.5720 C.3    63  TYR63       0.1736
     45  C          6.2570    9.9210   11.5100 C.2    63  TYR63       0.2596
     46  O          5.0760   10.1210   11.1820 O.2    63  TYR63      -0.2718
     47  CB         7.6310    7.7930   11.1630 C.3    63  TYR63       0.0548
     48  CG         6.4350    6.9560   11.4710 C.ar   63  TYR63      -0.0200
     49  CD1        5.7630    7.0800   12.6880 C.ar   63  TYR63      -0.0009
     50  CD2        5.9350    6.0600   10.5280 C.ar   63  TYR63      -0.0009
     51  CE1        4.6330    6.3210   12.9580 C.ar   63  TYR63       0.0417
     52  CE2        4.7950    5.2770   10.7960 C.ar   63  TYR63       0.0417
     53  CZ         4.1550    5.4220   12.0050 C.ar   63  TYR63       0.1957
     54  OH         3.0400    4.6670   12.2610 O.3    63  TYR63      -0.2866
     55  N          6.7180   10.3530   12.6690 N.am   64  SER64      -0.1952
     56  CA         5.8180   11.0810   13.5650 C.3    64  SER64       0.1924
     57  C          5.3550   12.4680   13.0520 C.2    64  SER64       0.2314
     58  O          4.3070   12.9400   13.4840 O.2    64  SER64      -0.2863
     59  CB         6.4350   11.1720   14.9410 C.3    64  SER64       0.2116
     60  OG         7.7940   11.5020   14.7970 O.3    64  SER64      -0.2180
     61  N         12.0970   19.9890   14.5940 N.3    81  MET81      -0.1230
     62  CA        13.5320   20.1990   14.6750 C.3    81  MET81       0.1702
     63  C         14.3010   18.8950   14.3900 C.2    81  MET81       0.2592
     64  O         14.0500   17.8560   14.9950 O.2    81  MET81      -0.2718
     65  CB        13.8900   20.8380   16.0200 C.3    81  MET81       0.0401
     66  CG        13.2330   22.2020   16.2170 C.3    81  MET81       0.0596
     67  SD        13.7060   22.9820   17.7780 S.3    81  MET81      -0.1393
     68  CE        12.9140   24.5900   17.7720 C.3    81  MET81       0.0692
     69  N         15.1900   18.9530   13.4050 N.am   82  GLU82      -0.1966
     70  CA        16.0570   17.8400   13.0550 C.3    82  GLU82       0.1733
     71  C         17.4750   18.3380   12.8690 C.2    82  GLU82       0.2616
     72  O         17.7570   19.1280   11.9480 O.2    82  GLU82      -0.2715
     73  CB        15.5800   17.1530   11.7750 C.3    82  GLU82       0.0429
     74  CG        16.4250   15.9360   11.3960 C.3    82  GLU82       0.1163
     75  CD        16.7680   15.0530   12.6000 C.2    82  GLU82       0.3649
     76  OE1       15.8280   14.7220   13.3450 O.co2  82  GLU82      -0.2457
     77  OE2       17.9650   14.7110   12.8190 O.co2  82  GLU82      -0.2457
     78  N         18.3790   17.8960   13.7370 N.am   83  MET83      -0.1963
     79  CA        19.7610   18.3970   13.6540 C.3    83  MET83       0.1736
     80  C         20.5100   17.8100   12.4610 C.2    83  MET83       0.2616
     81  O         21.4450   18.4210   11.9910 O.2    83  MET83      -0.2715
     82  CB        20.5450   18.1800   14.9630 C.3    83  MET83       0.0427
     83  CG        20.9340   16.7160   15.2360 C.3    83  MET83       0.0599
     84  SD        22.0430   16.4620   16.6340 S.3    83  MET83      -0.1393
     85  CE        23.2540   17.7870   16.2870 C.3    83  MET83       0.0692
     86  N         20.0920   16.6360   11.9770 N.am   84  ASN84      -0.1972
     87  CA        20.7530   15.9620   10.8490 C.3    84  ASN84       0.1688
     88  C         20.1400   16.2910    9.4850 C.2    84  ASN84       0.2292
     89  O         19.0230   15.8580    9.1940 O.2    84  ASN84      -0.2864
     90  CB        20.7320   14.4560   11.0760 C.3    84  ASN84       0.1181
     91  CG        21.4840   13.6850   10.0170 C.2    84  ASN84       0.2629
     92  OD1       21.7680   12.5140   10.1950 O.2    84  ASN84      -0.2716
     93  ND2       21.8150   14.3350    8.9230 N.am   84  ASN84      -0.0877
     94  N         18.4500   13.7540    7.3380 N.3    87  TYR87      -0.1241
     95  CA        17.1370   13.3140    7.7750 C.3    87  TYR87       0.1605
     96  C         16.1410   14.4300    7.5020 C.2    87  TYR87       0.2264
     97  O         15.0360   14.1650    7.0450 O.2    87  TYR87      -0.2867
     98  CB        17.1330   12.9130    9.2420 C.3    87  TYR87       0.0534
     99  CG        18.0980   11.8160    9.6070 C.ar   87  TYR87      -0.0201
    100  CD1       18.7080   11.0270    8.6180 C.ar   87  TYR87      -0.0009
    101  CD2       18.3740   11.5340   10.9410 C.ar   87  TYR87      -0.0009
    102  CE1       19.6000   10.0020    8.9460 C.ar   87  TYR87       0.0417
    103  CE2       19.2540   10.5120   11.2880 C.ar   87  TYR87       0.0417
    104  CZ        19.8710    9.7440   10.2760 C.ar   87  TYR87       0.1957
    105  OH        20.7640    8.7200   10.6030 O.3    87  TYR87      -0.2866
    106  N         18.6130   22.1040   12.7300 N.3   109  GLY109     -0.1210
    107  CA        19.7170   22.3310   13.6170 C.3   109  GLY109      0.1956
    108  C         19.4840   21.6630   14.9430 C.2   109  GLY109      0.2612
    109  O         18.5760   20.8390   15.0720 O.2   109  GLY109     -0.2717
    110  N         20.3200   22.0140   15.9190 N.am  110  ALA110     -0.1965
    111  CA        20.2210   21.4580   17.2470 C.3   110  ALA110      0.1728
    112  C         19.0090   22.0760   17.9170 C.2   110  ALA110      0.2617
    113  O         18.7080   23.2470   17.6830 O.2   110  ALA110     -0.2715
    114  CB        21.4650   21.7660   18.0150 C.3   110  ALA110      0.0334
    115  N         18.3040   21.2970   18.7230 N.am  111  SER111     -0.1936
    116  CA        17.2060   21.8360   19.4940 C.3   111  SER111      0.2055
    117  C         17.6440   22.9780   20.4520 C.2   111  SER111      0.2642
    118  O         17.0340   24.0440   20.5030 O.2   111  SER111     -0.2714
    119  CB        16.4730   20.7150   20.2330 C.3   111  SER111      0.2130
    120  OG        17.2890   20.0610   21.1970 O.3   111  SER111     -0.2179
    121  N         18.7110   22.7510   21.1990 N.am  112  GLN112     -0.1976
    122  CA        19.2320   23.7380   22.1240 C.3   112  GLN112      0.1601
    123  C         19.4860   25.0890   21.4300 C.2   112  GLN112      0.2287
    124  O         19.4150   26.1570   22.0840 O.2   112  GLN112     -0.2864
    125  CB        20.5030   23.2170   22.7960 C.3   112  GLN112      0.0394
    126  CG        21.5690   22.7090   21.8420 C.3   112  GLN112      0.0908
    127  CD        21.5200   21.1970   21.6160 C.2   112  GLN112      0.2608
    128  OE1       22.5160   20.5080   21.7820 O.2   112  GLN112     -0.2717
    129  NE2       20.3680   20.6840   21.2380 N.am  112  GLN112     -0.0878
    130  N          6.1590   17.2930   21.1440 N.3   131  PHE131     -0.1241
    131  CA         6.5430   15.8900   21.0910 C.3   131  PHE131      0.1605
    132  C          8.0830   15.6470   21.2220 C.2   131  PHE131      0.2264
    133  O          8.8560   15.8840   20.2820 O.2   131  PHE131     -0.2867
    134  CB         6.0170   15.2590   19.8060 C.3   131  PHE131      0.0534
    135  CG         6.3310   13.7950   19.7000 C.ar  131  PHE131     -0.0203
    136  CD1        5.8230   12.8890   20.6500 C.ar  131  PHE131     -0.0042
    137  CD2        7.1490   13.3160   18.6770 C.ar  131  PHE131     -0.0042
    138  CE1        6.0990   11.5560   20.5580 C.ar  131  PHE131     -0.0003
    139  CE2        7.4430   11.9700   18.5740 C.ar  131  PHE131     -0.0003
    140  CZ         6.9180   11.0820   19.4960 C.ar  131  PHE131     -0.0000
    141  N         11.2440   13.5500   21.0750 N.3   133  ASP133     -0.1225
    142  CA        11.7270   12.2730   20.5280 C.3   133  ASP133      0.1805
    143  C         13.1650   12.2950   19.9550 C.2   133  ASP133      0.2598
    144  O         13.5320   11.4770   19.0860 O.2   133  ASP133     -0.2718
    145  CB        10.7520   11.7370   19.4940 C.3   133  ASP133      0.1424
    146  CG        10.8930   10.2370   19.3000 C.2   133  ASP133      0.3668
    147  OD1       11.4710    9.5450   20.1780 O.co2 133  ASP133     -0.2456
    148  OD2       10.4470    9.7230   18.2550 O.co2 133  ASP133     -0.2456
    149  N         13.9780   13.2160   20.4570 N.am  134  HIS134     -0.1961
    150  CA        15.3460   13.3480   20.0170 C.3   134  HIS134      0.1787
    151  C         16.3130   12.6980   21.0040 C.2   134  HIS134      0.2620
    152  O         16.0470   11.6060   21.5240 O.2   134  HIS134     -0.2715
    153  CB        15.6650   14.8240   19.8210 C.3   134  HIS134      0.0785
    154  CG        15.4510   15.6530   21.0430 C.ar  134  HIS134      0.0821
    155  ND1       16.1320   16.8270   21.2680 N.ar  134  HIS134     -0.2267
    156  CD2       14.6440   15.4760   22.1160 C.ar  134  HIS134      0.1154
    157  CE1       15.7500   17.3370   22.4250 C.ar  134  HIS134      0.1986
    158  NE2       14.8450   16.5420   22.9560 N.ar  134  HIS134     -0.2212
    159  N         17.4330   13.3700   21.2580 N.am  135  TRP135     -0.1974
    160  CA        18.4630   12.8500   22.1350 C.3   135  TRP135      0.1640
    161  C         17.9200   12.7220   23.5420 C.2   135  TRP135      0.2290
    162  O         17.4570   13.6870   24.1200 O.2   135  TRP135     -0.2864
    163  CB        19.7260   13.7430   22.0920 C.3   135  TRP135      0.0576
    164  CG        20.9350   12.8830   21.9650 C.ar  135  TRP135      0.0006
    165  CD1       21.3950   12.2510   20.8170 C.ar  135  TRP135      0.0946
    166  CD2       21.8110   12.4870   23.0150 C.ar  135  TRP135      0.0152
    167  NE1       22.5120   11.4890   21.1100 N.ar  135  TRP135     -0.2442
    168  CE2       22.7840   11.6190   22.4500 C.ar  135  TRP135      0.0810
    169  CE3       21.8720   12.7800   24.3740 C.ar  135  TRP135      0.0012
    170  CZ2       23.7980   11.0570   23.2000 C.ar  135  TRP135      0.0191
    171  CZ3       22.8720   12.2060   25.1350 C.ar  135  TRP135      0.0001
    172  CH2       23.8320   11.3660   24.5480 C.ar  135  TRP135      0.0015
    173  N         18.6760   15.2640   26.3480 N.3   138  ARG138     -0.1245
    174  CA        18.1290   16.5940   26.1310 C.3   138  ARG138      0.1563
    175  C         16.7050   16.7810   26.6540 C.2   138  ARG138      0.2260
    176  O         16.2940   17.9190   26.8260 O.2   138  ARG138     -0.2867
    177  CB        18.2000   16.9870   24.6550 C.3   138  ARG138      0.0307
    178  CG        19.6090   17.2450   24.1320 C.3   138  ARG138      0.0489
    179  CD        19.7950   18.6940   23.7400 C.3   138  ARG138      0.2205
    180  NE        20.4980   19.4740   24.7590 N.pl3 138  ARG138     -0.0865
    181  CZ        20.0740   20.6040   25.3190 C.cat 138  ARG138      0.5346
    182  NH1       18.9260   21.1670   24.9890 N.pl3 138  ARG138      0.1354
    183  NH2       20.8400   21.1920   26.2120 N.pl3 138  ARG138      0.1354
    184  N         10.0670    7.0530   24.5830 N.3   162  ASN162     -0.1240
    185  CA        11.2550    6.2500   24.9890 C.3   162  ASN162      0.1653
    186  C         11.7400    6.5880   26.3760 C.2   162  ASN162      0.2266
    187  O         12.8680    7.0010   26.5470 O.2   162  ASN162     -0.2867
    188  CB        12.4100    6.3500   23.9810 C.3   162  ASN162      0.1155
    189  CG        12.0230    5.8660   22.5900 C.2   162  ASN162      0.2627
    190  OD1       12.2340    6.5540   21.6110 O.2   162  ASN162     -0.2716
    191  ND2       11.4490    4.7000   22.5050 N.am  162  ASN162     -0.0877
@<TRIPOS>BOND
     1    40    39    2
     2    97    96    2
     3    94    95    1
     4    96    95    1
     5    95    98    1
     6    41    42    1
     7    41    38    1
     8    39    38    1
     9    38    37    1
    10   100   102   ar
    11   100    99   ar
    12    93    91   am
    13   102   104   ar
    14    89    88    2
    15    98    99    1
    16    28    27    2
    17    88    87    1
    18    99   101   ar
    19    37    27   am
    20    36    35    1
    21    91    92    2
    22    91    90    1
    23    43    44    1
    24    27    26    1
    25   104   105    1
    26   104   103   ar
    27    50    52   ar
    28    50    48   ar
    29    44    47    1
    30    44    45    1
    31    35    33   ar
    32    35    34   ar
    33    33    31   ar
    34    52    53   ar
    35    87    90    1
    36    87    86    1
    37   101   103   ar
    38    34    32   ar
    39    47    48    1
    40    46    45    2
    41    31    30   ar
    42    74    73    1
    43    74    75    1
    44    48    49   ar
    45    45    55   am
    46    32    30   ar
    47    26    25    1
    48    26    29    1
    49    24    21    1
    50    30    29    1
    51    73    70    1
    52    23    22    2
    53    72    71    2
    54    86    80   am
    55    81    80    2
    56    53    54    1
    57    53    51   ar
    58    25    22   am
    59    22    21    1
    60    80    79    1
    61    75    77   ar
    62    75    76   ar
    63    55    56    1
    64    49    51   ar
    65   106   107    1
    66    21    20    1
    67    71    70    1
    68    71    78   am
    69    57    58    2
    70    57    56    1
    71    70    69    1
    72    69    63   am
    73    56    59    1
    74   107   108    1
    75    79    78    1
    76    79    82    1
    77    20    18   am
    78    63    62    1
    79    63    64    2
    80    61    62    1
    81    62    65    1
    82    60    59    1
    83   108   109    2
    84   108   110   am
    85    82    83    1
    86    18    19    2
    87    18    17    1
    88    83    84    1
    89     4     3    2
    90   110   111    1
    91    65    66    1
    92    66    67    1
    93     3     2    1
    94    17    16    1
    95    85    84    1
    96     1     2    1
    97    16    10   am
    98     2     5    1
    99   111   112    1
   100   111   114    1
   101     5     7    1
   102     5     6    1
   103   113   112    2
   104    68    67    1
   105   112   115   am
   106    10     9    1
   107    10    11    2
   108   148   146   ar
   109     8     9    1
   110     9    12    1
   111   139   137   ar
   112   139   140   ar
   113   137   135   ar
   114   115   116    1
   115   144   143    2
   116   146   145    1
   117   146   147   ar
   118   116   119    1
   119   116   117    1
   120   145   142    1
   121   140   138   ar
   122   135   134    1
   123   135   136   ar
   124    14    13    1
   125   134   131    1
   126   153   150    1
   127   153   154    1
   128   143   149   am
   129   143   142    1
   130   150   149    1
   131   150   151    1
   132    12    13    1
   133   119   120    1
   134   133   132    2
   135   117   118    2
   136   117   121   am
   137   142   141    1
   138   138   136   ar
   139    13    15    1
   140   165   167   ar
   141   165   164   ar
   142   151   159   am
   143   151   152    2
   144   154   155   ar
   145   154   156   ar
   146   131   130    1
   147   131   132    1
   148   167   168   ar
   149   121   122    1
   150   129   127   am
   151   159   160    1
   152   155   157   ar
   153   123   124    2
   154   123   122    1
   155   190   189    2
   156   127   128    2
   157   127   126    1
   158   126   125    1
   159   164   163    1
   160   164   166   ar
   161   163   160    1
   162   156   158   ar
   163   122   125    1
   164   160   161    1
   165   157   158   ar
   166   168   166   ar
   167   168   170   ar
   168   191   189   am
   169   189   188    1
   170   166   169   ar
   171   170   172   ar
   172   161   162    2
   173   179   178    1
   174   179   180    1
   175   188   185    1
   176   178   177    1
   177   169   171   ar
   178   172   171   ar
   179   184   185    1
   180   177   174    1
   181   180   181    2
   182   182   181    1
   183   185   186    1
   184   181   183    1
   185   174   173    1
   186   174   175    1
   187   186   187    2
   188   175   176    2
