@<TRIPOS>MOLECULE
tmp/2ztkA00.pdb
 135 125 0 0 0
SMALL
GASTEIGER

@<TRIPOS>ATOM
      1  N        -33.1630   45.8440  -15.1520 N.3    12  ARG12      -0.1231
      2  CA       -33.1440   44.4280  -15.4770 C.3    12  ARG12       0.1694
      3  C        -33.0340   44.3630  -16.9970 C.2    12  ARG12       0.2591
      4  O        -31.9420   44.2380  -17.5780 O.2    12  ARG12      -0.2718
      5  CB       -34.4380   43.7550  -14.9510 C.3    12  ARG12       0.0321
      6  CG       -34.3980   42.2270  -14.9330 C.3    12  ARG12       0.0489
      7  CD       -34.4720   41.6040  -16.3590 C.3    12  ARG12       0.2205
      8  NE       -35.8490   41.5820  -16.8750 N.pl3  12  ARG12      -0.0865
      9  CZ       -36.1960   41.2430  -18.1220 C.cat  12  ARG12       0.5346
     10  NH1      -35.2730   40.9140  -19.0330 N.pl3  12  ARG12       0.1354
     11  NH2      -37.4910   41.2380  -18.4660 N.pl3  12  ARG12       0.1354
     12  N        -34.1730   44.5160  -17.6600 N.am   13  GLU13      -0.1979
     13  CA       -34.1770   44.6370  -19.1170 C.3    13  GLU13       0.1602
     14  C        -33.3100   45.6770  -19.8960 C.2    13  GLU13       0.2287
     15  O        -32.5640   45.2840  -20.7620 O.2    13  GLU13      -0.2864
     16  CB       -35.6240   44.7870  -19.6520 C.3    13  GLU13       0.0415
     17  CG       -35.6600   45.0070  -21.2010 C.3    13  GLU13       0.1163
     18  CD       -35.6620   43.6750  -21.9500 C.2    13  GLU13       0.3649
     19  OE1      -36.4670   42.8140  -21.5660 O.co2  13  GLU13      -0.2457
     20  OE2      -34.8620   43.4650  -22.8830 O.co2  13  GLU13      -0.2457
     21  N        -29.7020   44.9340  -20.2200 N.3    16  GLN16      -0.1245
     22  CA       -29.4250   44.1590  -21.4250 C.3    16  GLN16       0.1566
     23  C        -29.2920   45.0700  -22.6270 C.2    16  GLN16       0.2260
     24  O        -28.9180   44.6350  -23.7070 O.2    16  GLN16      -0.2867
     25  CB       -30.4950   43.0650  -21.6150 C.3    16  GLN16       0.0367
     26  CG       -30.6250   42.2090  -20.3330 C.3    16  GLN16       0.0905
     27  CD       -31.7770   41.2190  -20.3250 C.2    16  GLN16       0.2608
     28  OE1      -32.4090   40.9920  -19.2770 O.2    16  GLN16      -0.2717
     29  NE2      -32.0370   40.5970  -21.4650 N.am   16  GLN16      -0.0878
     30  N        -35.7120   39.1740  -11.3410 N.3    72  HIS72      -0.1241
     31  CA       -36.1270   38.3310  -12.4550 C.3    72  HIS72       0.1621
     32  C        -35.1480   37.1740  -12.5500 C.2    72  HIS72       0.2264
     33  O        -33.9300   37.3940  -12.6570 O.2    72  HIS72      -0.2867
     34  CB       -36.0680   39.1920  -13.7200 C.3    72  HIS72       0.0745
     35  CG       -36.6020   38.5210  -14.9470 C.ar   72  HIS72       0.0817
     36  ND1      -35.8250   37.7170  -15.7530 N.ar   72  HIS72      -0.2268
     37  CD2      -37.8370   38.5430  -15.5090 C.ar   72  HIS72       0.1154
     38  CE1      -36.5570   37.2710  -16.7620 C.ar   72  HIS72       0.1986
     39  NE2      -37.7820   37.7570  -16.6370 N.ar   72  HIS72      -0.2212
     40  N        -39.2370   33.3080  -14.9000 N.3    94  LEU94      -0.1245
     41  CA       -39.3940   33.0610  -16.3280 C.3    94  LEU94       0.1561
     42  C        -39.0900   31.5970  -16.6300 C.2    94  LEU94       0.2260
     43  O        -37.9590   31.1470  -16.4390 O.2    94  LEU94      -0.2867
     44  CB       -38.4800   33.9600  -17.1550 C.3    94  LEU94       0.0270
     45  CG       -38.6530   33.8290  -18.6710 C.3    94  LEU94       0.0019
     46  CD1      -40.0110   34.4120  -19.1630 C.3    94  LEU94       0.0001
     47  CD2      -37.5170   34.4860  -19.4110 C.3    94  LEU94       0.0001
     48  N        -44.3670   35.9250   -9.3680 N.3   125  ARG125     -0.1245
     49  CA       -44.9920   35.9620  -10.7010 C.3   125  ARG125      0.1563
     50  C        -44.4070   34.8440  -11.5510 C.2   125  ARG125      0.2260
     51  O        -43.2060   34.5240  -11.4420 O.2   125  ARG125     -0.2867
     52  CB       -44.7740   37.3200  -11.3870 C.3   125  ARG125      0.0307
     53  CG       -45.1770   37.3530  -12.8930 C.3   125  ARG125      0.0489
     54  CD       -43.9750   37.0250  -13.7690 C.3   125  ARG125      0.2205
     55  NE       -43.3300   38.2410  -14.2650 N.pl3 125  ARG125     -0.0865
     56  CZ       -42.2600   38.2450  -15.0530 C.cat 125  ARG125      0.5346
     57  NH1      -41.6750   37.1120  -15.3790 N.pl3 125  ARG125      0.1354
     58  NH2      -41.7730   39.3850  -15.5020 N.pl3 125  ARG125      0.1354
     59  N        -44.0350   33.5740  -15.5990 N.3   127  SER127     -0.1217
     60  CA       -44.2140   33.7320  -17.0440 C.3   127  SER127      0.1889
     61  C        -43.5540   32.5830  -17.8070 C.2   127  SER127      0.2288
     62  O        -42.5070   32.0650  -17.3740 O.2   127  SER127     -0.2866
     63  CB       -43.5630   35.0170  -17.5470 C.3   127  SER127      0.2089
     64  OG       -44.2400   36.1560  -17.0630 O.3   127  SER127     -0.2183
     65  N        -41.6390   31.9890  -21.3930 N.3   129  GLU129     -0.1245
     66  CA       -40.9860   32.7830  -22.4150 C.3   129  GLU129      0.1567
     67  C        -41.7310   32.6750  -23.7370 C.2   129  GLU129      0.2260
     68  O        -42.2340   31.6070  -24.0740 O.2   129  GLU129     -0.2867
     69  CB       -39.5360   32.3140  -22.6260 C.3   129  GLU129      0.0388
     70  CG       -38.6840   33.3170  -23.4030 C.3   129  GLU129      0.1160
     71  CD       -37.2550   32.8210  -23.6630 C.2   129  GLU129      0.3649
     72  OE1      -36.9590   31.6410  -23.3780 O.co2 129  GLU129     -0.2457
     73  OE2      -36.4420   33.6120  -24.1780 O.co2 129  GLU129     -0.2457
     74  N        -47.4080   36.2440  -16.0940 N.3   154  GLY154     -0.1210
     75  CA       -47.0060   37.1970  -17.1100 C.3   154  GLY154      0.1956
     76  C        -47.0070   36.6030  -18.5080 C.2   154  GLY154      0.2612
     77  O        -46.8700   35.3870  -18.6820 O.2   154  GLY154     -0.2717
     78  N        -47.1530   37.4780  -19.4940 N.am  155  LEU155     -0.1965
     79  CA       -47.0150   37.1080  -20.8890 C.3   155  LEU155      0.1728
     80  C        -45.8730   37.9380  -21.4550 C.2   155  LEU155      0.2616
     81  O        -45.7720   39.1240  -21.1560 O.2   155  LEU155     -0.2715
     82  CB       -48.2960   37.4490  -21.6610 C.3   155  LEU155      0.0311
     83  CG       -49.5560   36.6700  -21.2510 C.3   155  LEU155      0.0022
     84  CD1      -50.2400   37.3270  -20.0660 C.3   155  LEU155      0.0001
     85  CD2      -50.5220   36.6270  -22.4640 C.3   155  LEU155      0.0001
     86  N        -45.0300   37.3160  -22.2700 N.am  156  ALA156     -0.1977
     87  CA       -43.8560   38.0190  -22.8060 C.3   156  ALA156      0.1597
     88  C        -43.8080   37.9090  -24.3190 C.2   156  ALA156      0.2287
     89  O        -43.6760   36.8090  -24.8340 O.2   156  ALA156     -0.2864
     90  CB       -42.5720   37.4050  -22.2050 C.3   156  ALA156      0.0319
     91  N        -41.4340   38.1660  -26.4750 N.3   158  THR158     -0.1218
     92  CA       -39.9720   38.1200  -26.3490 C.3   158  THR158      0.1862
     93  C        -39.2410   38.6280  -27.5970 C.2   158  THR158      0.2287
     94  O        -38.2400   39.3370  -27.5010 O.2   158  THR158     -0.2866
     95  CB       -39.5750   36.6610  -26.0290 C.3   158  THR158      0.1770
     96  OG1      -40.2090   36.2890  -24.8050 O.3   158  THR158     -0.2211
     97  CG2      -38.0640   36.4680  -25.8750 C.3   158  THR158      0.0375
     98  N        -49.4700   40.2460  -16.0390 N.3   185  GLU185     -0.1245
     99  CA       -48.4100   41.1690  -16.4280 C.3   185  GLU185      0.1567
    100  C        -48.1240   41.0400  -17.9210 C.2   185  GLU185      0.2260
    101  O        -48.1320   39.9230  -18.4550 O.2   185  GLU185     -0.2867
    102  CB       -47.1540   40.8230  -15.6180 C.3   185  GLU185      0.0388
    103  CG       -45.8750   41.7060  -15.9640 C.3   185  GLU185      0.1160
    104  CD       -44.6960   41.3100  -15.0950 C.2   185  GLU185      0.3649
    105  OE1      -44.9180   40.5540  -14.1160 O.co2 185  GLU185     -0.2457
    106  OE2      -43.5470   41.7420  -15.3790 O.co2 185  GLU185     -0.2457
    107  N        -45.2260   42.0100  -20.9200 N.3   187  HIS187     -0.1241
    108  CA       -43.8710   42.4340  -21.2860 C.3   187  HIS187      0.1621
    109  C        -43.7790   42.3780  -22.7920 C.2   187  HIS187      0.2264
    110  O        -43.9360   41.3190  -23.3840 O.2   187  HIS187     -0.2867
    111  CB       -42.8420   41.4430  -20.6980 C.3   187  HIS187      0.0745
    112  CG       -41.4150   41.7570  -21.0300 C.ar  187  HIS187      0.0817
    113  ND1      -40.6220   42.5690  -20.2350 N.ar  187  HIS187     -0.2268
    114  CD2      -40.6210   41.3360  -22.0520 C.ar  187  HIS187      0.1154
    115  CE1      -39.4100   42.6430  -20.7610 C.ar  187  HIS187      0.1986
    116  NE2      -39.3820   41.9090  -21.8660 N.ar  187  HIS187     -0.2212
    117  N        -41.6180   43.4560  -26.4360 N.3   189  HIS189     -0.1241
    118  CA       -40.5370   44.0670  -27.2290 C.3   189  HIS189      0.1621
    119  C        -41.0460   44.8790  -28.4210 C.2   189  HIS189      0.2264
    120  O        -42.1760   44.6630  -28.8880 O.2   189  HIS189     -0.2867
    121  CB       -39.5160   42.9970  -27.6040 C.3   189  HIS189      0.0745
    122  CG       -38.5790   42.6910  -26.4760 C.ar  189  HIS189      0.0817
    123  ND1      -37.3440   43.2970  -26.3690 N.ar  189  HIS189     -0.2268
    124  CD2      -38.7220   41.9290  -25.3660 C.ar  189  HIS189      0.1154
    125  CE1      -36.7490   42.8900  -25.2620 C.ar  189  HIS189      0.1986
    126  NE2      -37.5580   42.0620  -24.6300 N.ar  189  HIS189     -0.2212
    127  N        -32.8910   44.7340  -24.5860 N.3   219  GLU219     -0.1245
    128  CA       -32.3950   43.9190  -25.7040 C.3   219  GLU219      0.1567
    129  C        -32.8720   44.5210  -27.0140 C.2   219  GLU219      0.2260
    130  O        -33.9990   45.0000  -27.0890 O.2   219  GLU219     -0.2867
    131  CB       -32.8970   42.4740  -25.6360 C.3   219  GLU219      0.0388
    132  CG       -32.2960   41.6120  -24.5620 C.3   219  GLU219      0.1160
    133  CD       -30.8330   41.2440  -24.8170 C.2   219  GLU219      0.3649
    134  OE1      -30.3510   41.3650  -25.9670 O.co2 219  GLU219     -0.2457
    135  OE2      -30.1660   40.8110  -23.8470 O.co2 219  GLU219     -0.2457
@<TRIPOS>BOND
     1   120   119    2
     2   119   118    1
     3   121   118    1
     4   121   122    1
     5    93    94    2
     6    93    92    1
     7   118   117    1
     8   130   129    2
     9   129   128    1
    10   122   123   ar
    11   122   124   ar
    12    91    92    1
    13   123   125   ar
    14    92    95    1
    15    95    97    1
    16    95    96    1
    17   134   133   ar
    18   128   131    1
    19   128   127    1
    20   131   132    1
    21   124   126   ar
    22   125   126   ar
    23    89    88    2
    24   133   132    1
    25   133   135   ar
    26    88    87    1
    27    73    71   ar
    28    68    67    2
    29    67    66    1
    30    24    23    2
    31    71    70    1
    32    71    72   ar
    33    70    69    1
    34   110   109    2
    35    20    18   ar
    36    87    86    1
    37    87    90    1
    38   109   108    1
    39    23    22    1
    40    69    66    1
    41    85    83    1
    42    66    65    1
    43    86    80   am
    44   114   116   ar
    45   114   112   ar
    46    18    19   ar
    47    18    17    1
    48   116   115   ar
    49    82    83    1
    50    82    79    1
    51    25    22    1
    52    25    26    1
    53    29    27   am
    54    80    81    2
    55    80    79    1
    56    22    21    1
    57   108   107    1
    58   108   111    1
    59    83    84    1
    60    17    16    1
    61   112   111    1
    62   112   113   ar
    63    79    78    1
    64    15    14    2
    65   115   113   ar
    66    26    27    1
    67    27    28    2
    68    14    13    1
    69    16    13    1
    70    78    76   am
    71    47    45    1
    72    46    45    1
    73    13    12    1
    74    10     9    1
    75    77    76    2
    76    45    44    1
    77    76    75    1
    78    11     9    1
    79   101   100    2
    80     9     8    2
    81   100    99    1
    82    61    62    2
    83    61    60    1
    84    12     3   am
    85     4     3    2
    86    63    64    1
    87    63    60    1
    88    44    41    1
    89    75    74    1
    90    60    59    1
    91     3     2    1
    92     8     7    1
    93    38    39   ar
    94    38    36   ar
    95    39    37   ar
    96    42    43    2
    97    42    41    1
    98    99    98    1
    99    99   102    1
   100     7     6    1
   101    41    40    1
   102   103   102    1
   103   103   104    1
   104    36    35   ar
   105    37    35   ar
   106    58    56    1
   107     2     1    1
   108     2     5    1
   109    57    56    1
   110   106   104   ar
   111   104   105   ar
   112    56    55    2
   113     5     6    1
   114    35    34    1
   115    55    54    1
   116    54    53    1
   117    34    31    1
   118    53    52    1
   119    33    32    2
   120    32    31    1
   121    31    30    1
   122    50    51    2
   123    50    49    1
   124    52    49    1
   125    49    48    1
