@<TRIPOS>MOLECULE
tmp/2ztlA01.pdb
 114 113 0 0 0
SMALL
GASTEIGER

@<TRIPOS>ATOM
      1  N         -0.9950    9.2260   27.3570 N.3    94  GLN94      -0.1245
      2  CA        -0.8130    8.3410   26.1860 C.3    94  GLN94       0.1566
      3  C          0.6090    7.8360   26.1240 C.2    94  GLN94       0.2260
      4  O          1.5320    8.4960   26.6300 O.2    94  GLN94      -0.2867
      5  CB        -1.2000    9.1140   24.9140 C.3    94  GLN94       0.0367
      6  CG        -1.0300    8.3270   23.6260 C.3    94  GLN94       0.0905
      7  CD        -1.9410    7.1150   23.5660 C.2    94  GLN94       0.2608
      8  OE1       -1.6300    6.0700   24.1440 O.2    94  GLN94      -0.2717
      9  NE2       -3.0550    7.2390   22.8380 N.am   94  GLN94      -0.0878
     10  N        -12.9930    8.1750   24.6560 N.3   142  SER142     -0.1202
     11  CA       -12.3170    8.4170   23.3850 C.3   142  SER142      0.2020
     12  C        -13.0400    7.5570   22.3590 C.2   142  SER142      0.2619
     13  O        -13.7390    6.6020   22.7310 O.2   142  SER142     -0.2717
     14  CB       -10.8630    7.9200   23.4270 C.3   142  SER142      0.2103
     15  OG       -10.1850    8.0340   22.1850 O.3   142  SER142     -0.2182
     16  N        -12.8270    7.8850   21.0910 N.am  143  ALA143     -0.1965
     17  CA       -13.1710    6.9650   19.9670 C.3   143  ALA143      0.1728
     18  C        -12.4950    5.6310   20.2750 C.2   143  ALA143      0.2616
     19  O        -13.0180    4.5540   19.9870 O.2   143  ALA143     -0.2715
     20  CB       -12.6610    7.5460   18.6590 C.3   143  ALA143      0.0334
     21  N        -11.3380    5.7040   20.9370 N.am  144  HIS144     -0.1973
     22  CA       -10.6030    4.4930   21.3570 C.3   144  HIS144      0.1656
     23  C        -11.1810    3.7290   22.5450 C.2   144  HIS144      0.2291
     24  O        -10.5820    2.7170   22.9850 O.2   144  HIS144     -0.2864
     25  CB        -9.1260    4.8410   21.5760 C.3   144  HIS144      0.0771
     26  CG        -8.3520    5.0050   20.3040 C.ar  144  HIS144      0.0820
     27  ND1       -7.4220    6.0030   20.1270 N.ar  144  HIS144     -0.2267
     28  CD2       -8.3810    4.3060   19.1390 C.ar  144  HIS144      0.1154
     29  CE1       -6.8860    5.8990   18.9250 C.ar  144  HIS144      0.1986
     30  NE2       -7.4540    4.8790   18.3040 N.ar  144  HIS144     -0.2212
     31  N         -1.4790    1.2110   20.5840 N.3   152  LYS152     -0.1245
     32  CA        -2.1230    1.9290   21.6860 C.3   152  LYS152      0.1561
     33  C         -2.8360    0.9860   22.6350 C.2   152  LYS152      0.2260
     34  O         -3.9410    1.2880   23.0780 O.2   152  LYS152     -0.2867
     35  CB        -3.0800    2.9900   21.1460 C.3   152  LYS152      0.0271
     36  CG        -2.2930    4.1050   20.4270 C.3   152  LYS152      0.0035
     37  CD        -3.2000    5.1370   19.7820 C.3   152  LYS152      0.0206
     38  CE        -2.3920    6.3640   19.3200 C.3   152  LYS152      0.1093
     39  NZ        -3.3140    7.3680   18.7150 N.3   152  LYS152     -0.1314
     40  N         -3.9350    2.2960   26.1990 N.3   155  TYR155     -0.1241
     41  CA        -4.8880    3.4030   26.1050 C.3   155  TYR155      0.1605
     42  C         -6.2400    2.8770   25.6600 C.2   155  TYR155      0.2264
     43  O         -7.2750    3.2060   26.2310 O.2   155  TYR155     -0.2867
     44  CB        -4.3440    4.4270   25.1030 C.3   155  TYR155      0.0534
     45  CG        -5.1370    5.7180   24.9900 C.ar  155  TYR155     -0.0201
     46  CD1       -6.1320    5.8540   24.0160 C.ar  155  TYR155     -0.0009
     47  CD2       -4.8430    6.8240   25.8150 C.ar  155  TYR155     -0.0009
     48  CE1       -6.8610    7.0480   23.8780 C.ar  155  TYR155      0.0417
     49  CE2       -5.5400    8.0260   25.6750 C.ar  155  TYR155      0.0417
     50  CZ        -6.5460    8.1390   24.7200 C.ar  155  TYR155      0.1957
     51  OH        -7.2440    9.3290   24.5920 O.3   155  TYR155     -0.2866
     52  N        -14.4320   11.5600   22.2880 N.3   185  PRO185     -0.2102
     53  CA       -13.8960   12.3900   21.1950 C.3   185  PRO185      0.1504
     54  C        -12.9660   11.7060   20.2130 C.2   185  PRO185      0.2576
     55  O        -12.2060   10.8050   20.5800 O.2   185  PRO185     -0.2718
     56  CB       -13.1260   13.5280   21.9200 C.3   185  PRO185      0.0282
     57  CG       -13.4030   13.3360   23.4200 C.3   185  PRO185      0.0208
     58  CD       -13.8350   11.9010   23.6050 C.3   185  PRO185      0.0893
     59  N        -12.9950   12.1950   18.9730 N.am  186  GLY186     -0.1943
     60  CA       -11.9700   11.9280   18.0020 C.3   186  GLY186      0.2014
     61  C        -10.8280   12.8910   18.2660 C.2   186  GLY186      0.2638
     62  O        -10.7010   13.4000   19.4060 O.2   186  GLY186     -0.2714
     63  N        -10.0090   13.1690   17.2570 N.am  187  TRP187     -0.1973
     64  CA        -8.8060   13.9790   17.4690 C.3   187  TRP187      0.1640
     65  C         -9.1420   15.4170   17.9190 C.2   187  TRP187      0.2290
     66  O        -10.0050   16.0780   17.3370 O.2   187  TRP187     -0.2864
     67  CB        -7.9570   14.1140   16.2180 C.3   187  TRP187      0.0576
     68  CG        -7.3380   12.8920   15.5920 C.ar  187  TRP187      0.0006
     69  CD1       -7.5580   12.4320   14.3250 C.ar  187  TRP187      0.0946
     70  CD2       -6.3990   11.9840   16.1900 C.ar  187  TRP187      0.0152
     71  NE1       -6.7890   11.3160   14.0780 N.ar  187  TRP187     -0.2442
     72  CE2       -6.0730   11.0150   15.2080 C.ar  187  TRP187      0.0810
     73  CE3       -5.7920   11.9030   17.4480 C.ar  187  TRP187      0.0012
     74  CZ2       -5.1820    9.9660   15.4490 C.ar  187  TRP187      0.0191
     75  CZ3       -4.8910   10.8750   17.6850 C.ar  187  TRP187      0.0001
     76  CH2       -4.5850    9.9220   16.6880 C.ar  187  TRP187      0.0015
     77  N         -1.1430   16.2290   23.6240 N.3   192  LEU192     -0.1231
     78  CA        -1.2280   14.7580   23.5560 C.3   192  LEU192      0.1693
     79  C         -1.2290   14.2920   22.0850 C.2   192  LEU192      0.2591
     80  O         -0.5820   13.2720   21.7250 O.2   192  LEU192     -0.2718
     81  CB        -2.4790   14.2750   24.3150 C.3   192  LEU192      0.0284
     82  CG        -2.7190   12.7730   24.5130 C.3   192  LEU192      0.0019
     83  CD1       -3.5600   12.4890   25.7400 C.3   192  LEU192      0.0001
     84  CD2       -3.3960   12.1930   23.2500 C.3   192  LEU192      0.0001
     85  N         -1.9500   15.0370   21.2440 N.am  193  VAL193     -0.1980
     86  CA        -2.0080   14.7720   19.7980 C.3   193  VAL193      0.1595
     87  C         -0.8390   15.4000   19.0200 C.2   193  VAL193      0.2287
     88  O         -0.3150   14.7990   18.0700 O.2   193  VAL193     -0.2864
     89  CB        -3.3860   15.2010   19.2090 C.3   193  VAL193      0.0276
     90  CG1       -3.3620   15.2920   17.6760 C.3   193  VAL193      0.0022
     91  CG2       -4.4670   14.2240   19.6610 C.3   193  VAL193      0.0022
     92  N          2.1120   13.2390   18.6070 N.3   196  GLN196     -0.1245
     93  CA         1.9270   12.2450   17.5510 C.3   196  GLN196      0.1566
     94  C          2.1060   12.8140   16.1370 C.2   196  GLN196      0.2260
     95  O          2.7380   12.1940   15.2840 O.2   196  GLN196     -0.2867
     96  CB         0.5690   11.5800   17.7200 C.3   196  GLN196      0.0367
     97  CG         0.4650   10.9070   19.0960 C.3   196  GLN196      0.0905
     98  CD        -0.8690   10.2540   19.2970 C.2   196  GLN196      0.2608
     99  OE1       -1.2060    9.3200   18.5840 O.2   196  GLN196     -0.2717
    100  NE2       -1.6330   10.7370   20.2780 N.am  196  GLN196     -0.0878
    101  N        -15.4560    9.3120   12.8020 N.3   257  TRP257     -0.1241
    102  CA       -14.4590    8.2550   13.0430 C.3   257  TRP257      0.1605
    103  C        -15.0590    6.8590   13.1830 C.2   257  TRP257      0.2264
    104  O        -14.6340    5.9440   12.4900 O.2   257  TRP257     -0.2867
    105  CB       -13.6790    8.6350   14.3280 C.3   257  TRP257      0.0550
    106  CG       -12.5140    7.7630   14.7410 C.ar  257  TRP257      0.0003
    107  CD1      -12.4460    6.3820   14.7720 C.ar  257  TRP257      0.0946
    108  CD2      -11.2910    8.2380   15.2990 C.ar  257  TRP257      0.0152
    109  NE1      -11.2070    5.9720   15.2920 N.ar  257  TRP257     -0.2442
    110  CE2      -10.4780    7.0990   15.5950 C.ar  257  TRP257      0.0810
    111  CE3      -10.7700    9.5290   15.5420 C.ar  257  TRP257      0.0012
    112  CZ2       -9.2190    7.2190   16.1730 C.ar  257  TRP257      0.0191
    113  CZ3       -9.4720    9.6430   16.0880 C.ar  257  TRP257      0.0001
    114  CH2       -8.7130    8.4850   16.3890 C.ar  257  TRP257      0.0015
@<TRIPOS>BOND
     1   104   103    2
     2   101   102    1
     3   102   103    1
     4   102   105    1
     5    71    69   ar
     6    71    72   ar
     7    69    68   ar
     8   105   106    1
     9   106   107   ar
    10   106   108   ar
    11   107   109   ar
    12    72    74   ar
    13    72    70   ar
    14    95    94    2
    15   109   110   ar
    16   108   111   ar
    17   108   110   ar
    18    74    76   ar
    19   111   113   ar
    20    68    70   ar
    21    68    67    1
    22   110   112   ar
    23   113   114   ar
    24    94    93    1
    25   112   114   ar
    26    70    73   ar
    27    67    64    1
    28    76    75   ar
    29    63    64    1
    30    63    61   am
    31    66    65    2
    32    73    75   ar
    33    64    65    1
    34    93    96    1
    35    93    92    1
    36    90    89    1
    37    96    97    1
    38    60    61    1
    39    60    59    1
    40    88    87    2
    41    61    62    2
    42    30    29   ar
    43    30    28   ar
    44    99    98    2
    45    20    17    1
    46    39    38    1
    47    29    27   ar
    48    59    54   am
    49    87    86    1
    50    97    98    1
    51    28    26   ar
    52    89    91    1
    53    89    86    1
    54    98   100   am
    55    38    37    1
    56    37    36    1
    57    86    85    1
    58    17    18    1
    59    17    16    1
    60    19    18    2
    61    27    26   ar
    62    54    55    2
    63    54    53    1
    64    18    21   am
    65    26    25    1
    66    36    35    1
    67    31    32    1
    68    21    22    1
    69    16    12   am
    70    35    32    1
    71    53    56    1
    72    53    52    1
    73    85    79   am
    74    22    25    1
    75    22    23    1
    76    32    33    1
    77    80    79    2
    78    56    57    1
    79    79    78    1
    80    15    14    1
    81    52    58    1
    82    12    13    2
    83    12    11    1
    84    23    24    2
    85    33    34    2
    86     9     7   am
    87    84    82    1
    88    11    14    1
    89    11    10    1
    90    57    58    1
    91    78    77    1
    92    78    81    1
    93     7     6    1
    94     7     8    2
    95     6     5    1
    96    48    46   ar
    97    48    50   ar
    98    46    45   ar
    99    81    82    1
   100    82    83    1
   101    51    50    1
   102    50    49   ar
   103     5     2    1
   104    45    44    1
   105    45    47   ar
   106    44    41    1
   107    42    41    1
   108    42    43    2
   109    49    47   ar
   110    41    40    1
   111     3     2    1
   112     3     4    2
   113     2     1    1
