@<TRIPOS>MOLECULE
tmp/2ztsC00.pdb
 110 106 0 0 0
SMALL
GASTEIGER

@<TRIPOS>ATOM
      1  N        127.4450   -3.5790   45.9060 N.3    32  THR32      -0.1203
      2  CA       126.0840   -3.2910   45.4770 C.3    32  THR32       0.1994
      3  C        125.2200   -4.5760   45.5490 C.2    32  THR32       0.2618
      4  O        125.5980   -5.6410   45.0470 O.2    32  THR32      -0.2717
      5  CB       126.1140   -2.8190   43.9960 C.3    32  THR32       0.1784
      6  OG1      127.0380   -1.7490   43.8490 O.3    32  THR32      -0.2211
      7  CG2      124.8070   -2.2950   43.5230 C.3    32  THR32       0.0376
      8  N        124.0920   -4.4930   46.2560 N.am   33  GLY33      -0.1942
      9  CA       123.1020   -5.5270   46.1460 C.3    33  GLY33       0.2014
     10  C        123.3940   -6.6490   47.0660 C.2    33  GLY33       0.2640
     11  O        122.8820   -7.7430   46.8670 O.2    33  GLY33      -0.2714
     12  N        124.2120   -6.4160   48.0700 N.am   34  THR34      -0.1936
     13  CA       124.5110   -7.4700   49.0410 C.3    34  THR34       0.2028
     14  C        123.5350   -7.4760   50.2390 C.2    34  THR34       0.2643
     15  O        123.5800   -8.3790   51.0090 O.2    34  THR34      -0.2714
     16  CB       125.9520   -7.3880   49.5390 C.3    34  THR34       0.1808
     17  OG1      126.2160   -6.0650   50.0630 O.3    34  THR34      -0.2208
     18  CG2      127.0060   -7.6030   48.3340 C.3    34  THR34       0.0379
     19  N        122.6200   -6.5390   50.3270 N.am   35  GLY35      -0.1939
     20  CA       121.5440   -6.5560   51.3100 C.3    35  GLY35       0.2014
     21  C        121.6800   -5.4740   52.3350 C.2    35  GLY35       0.2639
     22  O        120.9590   -5.4980   53.3240 O.2    35  GLY35      -0.2714
     23  N        122.5340   -4.4950   52.0910 N.am   36  LYS36      -0.1963
     24  CA       122.7930   -3.4520   53.0970 C.3    36  LYS36       0.1728
     25  C        121.5590   -2.6860   53.5230 C.2    36  LYS36       0.2617
     26  O        121.2640   -2.5510   54.7130 O.2    36  LYS36      -0.2715
     27  CB       123.8070   -2.4390   52.5860 C.3    36  LYS36       0.0311
     28  CG       125.2020   -3.0070   52.3480 C.3    36  LYS36       0.0038
     29  CD       126.1440   -1.9530   52.0310 C.3    36  LYS36       0.0206
     30  CE       125.9660   -1.3290   50.6410 C.3    36  LYS36       0.1093
     31  NZ       125.7830   -2.1980   49.5050 N.3    36  LYS36      -0.1314
     32  N        120.8910   -2.0840   52.5450 N.am   37  THR37      -0.1937
     33  CA       119.6610   -1.3580   52.7840 C.3    37  THR37       0.2028
     34  C        118.5850   -2.1550   53.5280 C.2    37  THR37       0.2642
     35  O        117.9880   -1.6610   54.4780 O.2    37  THR37      -0.2714
     36  CB       119.1770   -0.8080   51.4630 C.3    37  THR37       0.1808
     37  OG1      120.0250    0.2650   51.1170 O.3    37  THR37      -0.2208
     38  CG2      117.7900   -0.1280   51.5500 C.3    37  THR37       0.0379
     39  N        118.3880   -3.3800   53.1040 N.am   38  THR38      -0.1950
     40  CA       117.4560   -4.3250   53.6510 C.3    38  THR38       0.1897
     41  C        117.7070   -4.6460   55.1210 C.2    38  THR38       0.2313
     42  O        116.8160   -4.5550   55.9550 O.2    38  THR38      -0.2863
     43  CB       117.5010   -5.5990   52.7790 C.3    38  THR38       0.1794
     44  OG1      116.9840   -5.2380   51.4920 O.3    38  THR38      -0.2208
     45  CG2      116.5290   -6.6550   53.2560 C.3    38  THR38       0.0378
     46  N        109.3550   -0.1670   48.8290 N.3    70  GLU70      -0.1245
     47  CA       110.2720   -1.2720   48.6660 C.3    70  GLU70       0.1567
     48  C        110.1410   -2.2370   49.8350 C.2    70  GLU70       0.2260
     49  O        110.1260   -3.4510   49.6400 O.2    70  GLU70      -0.2867
     50  CB       111.7060   -0.7720   48.4600 C.3    70  GLU70       0.0388
     51  CG       112.0980   -0.6770   46.9690 C.3    70  GLU70       0.1160
     52  CD       113.0040    0.5010   46.6490 C.2    70  GLU70       0.3649
     53  OE1      114.0280    0.6560   47.3580 O.co2  70  GLU70      -0.2457
     54  OE2      112.6700    1.2800   45.7020 O.co2  70  GLU70      -0.2457
     55  N        107.2910   -4.8880   50.2370 N.3    72  SER72      -0.1202
     56  CA       107.4310   -6.1900   49.6130 C.3    72  SER72       0.2020
     57  C        107.9130   -7.2750   50.5680 C.2    72  SER72       0.2618
     58  O        107.7960   -8.4620   50.2680 O.2    72  SER72      -0.2717
     59  CB       108.2830   -6.1130   48.3060 C.3    72  SER72       0.2103
     60  OG       109.7100   -5.9140   48.5060 O.3    72  SER72      -0.2182
     61  N        108.4680   -6.8750   51.7080 N.am   73  PHE73      -0.1975
     62  CA       108.7080   -7.7840   52.8360 C.3    73  PHE73       0.1639
     63  C        107.5420   -7.8470   53.8630 C.2    73  PHE73       0.2290
     64  O        107.6400   -8.4770   54.9180 O.2    73  PHE73      -0.2864
     65  CB       110.0220   -7.4150   53.5680 C.3    73  PHE73       0.0560
     66  CG       111.2400   -7.4810   52.6880 C.ar   73  PHE73      -0.0200
     67  CD1      111.5410   -8.6430   52.0010 C.ar   73  PHE73      -0.0042
     68  CD2      112.0380   -6.3850   52.5150 C.ar   73  PHE73      -0.0042
     69  CE1      112.5970   -8.7100   51.1840 C.ar   73  PHE73      -0.0003
     70  CE2      113.1250   -6.4250   51.6970 C.ar   73  PHE73      -0.0003
     71  CZ       113.4310   -7.6170   51.0370 C.ar   73  PHE73      -0.0000
     72  N        129.8890    1.1600   50.7260 N.3   162  GLU162     -0.1245
     73  CA       129.9450    0.2060   49.6260 C.3   162  GLU162      0.1567
     74  C        131.2910    0.2070   48.8940 C.2   162  GLU162      0.2260
     75  O        131.6280    1.2260   48.2930 O.2   162  GLU162     -0.2867
     76  CB       128.8130    0.5380   48.6670 C.3   162  GLU162      0.0388
     77  CG       128.6350   -0.4000   47.4540 C.3   162  GLU162      0.1160
     78  CD       127.2840   -0.1720   46.7330 C.2   162  GLU162      0.3649
     79  OE1      126.1960   -0.3370   47.3910 O.co2 162  GLU162     -0.2457
     80  OE2      127.3280    0.1490   45.5070 O.co2 162  GLU162     -0.2457
     81  N        124.7170  -15.6700   49.3810 N.3   194  ARG194     -0.1245
     82  CA       124.9650  -14.5610   50.2980 C.3   194  ARG194      0.1563
     83  C        125.5900  -15.0210   51.6010 C.2   194  ARG194      0.2260
     84  O        125.1850  -16.0320   52.1840 O.2   194  ARG194     -0.2867
     85  CB       123.6790  -13.8350   50.5900 C.3   194  ARG194      0.0307
     86  CG       122.9080  -13.4390   49.3690 C.3   194  ARG194      0.0489
     87  CD       121.7570  -12.5860   49.8060 C.3   194  ARG194      0.2205
     88  NE       120.9050  -12.1560   48.7400 N.pl3 194  ARG194     -0.0865
     89  CZ       121.1890  -11.1500   47.9140 C.cat 194  ARG194      0.5346
     90  NH1      122.3190  -10.4550   48.0520 N.pl3 194  ARG194      0.1354
     91  NH2      120.3180  -10.8280   46.9770 N.pl3 194  ARG194      0.1354
     92  N        117.7560  -13.4050   51.6480 N.3   213  ILE213     -0.1231
     93  CA       116.7370  -12.3720   51.6250 C.3   213  ILE213      0.1692
     94  C        115.4430  -13.0000   51.1600 C.2   213  ILE213      0.2593
     95  O        115.2450  -13.2540   49.9740 O.2   213  ILE213     -0.2718
     96  CB       117.1520  -11.2380   50.6490 C.3   213  ILE213      0.0266
     97  CG1      118.5430  -10.7450   51.0250 C.3   213  ILE213      0.0019
     98  CG2      116.1030  -10.0980   50.6760 C.3   213  ILE213      0.0020
     99  CD1      118.9930   -9.4300   50.2670 C.3   213  ILE213      0.0001
    100  N        114.5520  -13.2150   52.1110 N.am  214  GLY214     -0.1943
    101  CA       113.3080  -13.9430   51.8790 C.3   214  GLY214      0.1998
    102  C        112.1050  -13.0190   51.8210 C.2   214  GLY214      0.2480
    103  O        112.2620  -11.7910   51.9590 O.2   214  GLY214     -0.2729
    104  N        110.9030  -13.5920   51.6420 N.am  215  PRO215     -0.2726
    105  CA       109.6680  -12.7890   51.6210 C.3   215  PRO215      0.1402
    106  C        109.4130  -12.0550   52.9070 C.2   215  PRO215      0.2269
    107  O        108.6430  -11.1090   52.8580 O.2   215  PRO215     -0.2865
    108  CB       108.5470  -13.8180   51.3650 C.3   215  PRO215      0.0296
    109  CG       109.1230  -15.1390   51.7870 C.3   215  PRO215      0.0237
    110  CD       110.6260  -15.0380   51.4880 C.3   215  PRO215      0.0939
@<TRIPOS>BOND
     1     7     5    1
     2     6     5    1
     3     5     2    1
     4     4     3    2
     5     2     3    1
     6     2     1    1
     7    80    78   ar
     8     3     8   am
     9    54    52   ar
    10     9     8    1
    11     9    10    1
    12    52    51    1
    13    52    53   ar
    14    78    79   ar
    15    78    77    1
    16    11    10    2
    17    51    50    1
    18    91    89    1
    19    10    12   am
    20    77    76    1
    21    89    90    1
    22    89    88    2
    23    12    13    1
    24    75    74    2
    25    59    60    1
    26    59    56    1
    27    18    16    1
    28    50    47    1
    29    47    46    1
    30    47    48    1
    31    76    73    1
    32    88    87    1
    33    74    73    1
    34    13    16    1
    35    13    14    1
    36    86    87    1
    37    86    85    1
    38    81    82    1
    39    31    30    1
    40    16    17    1
    41    56    55    1
    42    56    57    1
    43    73    72    1
    44    49    48    2
    45    95    94    2
    46    14    19   am
    47    14    15    2
    48    99    97    1
    49    58    57    2
    50    82    85    1
    51    82    83    1
    52    19    20    1
    53    57    61   am
    54    30    29    1
    55    96    98    1
    56    96    97    1
    57    96    93    1
    58    71    69   ar
    59    71    70   ar
    60    37    36    1
    61    94    93    1
    62    94   100   am
    63    69    67   ar
    64    20    21    1
    65   108   105    1
    66   108   109    1
    67    36    38    1
    68    36    33    1
    69   110   104    1
    70   110   109    1
    71    44    43    1
    72    83    84    2
    73   105   104    1
    74   105   106    1
    75    93    92    1
    76   104   102   am
    77    70    68   ar
    78    61    62    1
    79   102   101    1
    80   102   103    2
    81   101   100    1
    82    67    66   ar
    83    29    28    1
    84    23    21   am
    85    23    24    1
    86    21    22    2
    87    28    27    1
    88    68    66   ar
    89    32    33    1
    90    32    25   am
    91    27    24    1
    92    66    65    1
    93    43    45    1
    94    43    40    1
    95    33    34    1
    96    62    65    1
    97    62    63    1
    98   107   106    2
    99    24    25    1
   100    39    34   am
   101    39    40    1
   102    25    26    2
   103    34    35    2
   104    40    41    1
   105    63    64    2
   106    41    42    2
