@<TRIPOS>MOLECULE
tmp/2ztwA01.pdb
 92 84 0 0 0
SMALL
GASTEIGER

@<TRIPOS>ATOM
      1  N         -8.0540   30.8600   24.4550 N.3    91  LEU91      -0.1245
      2  CA        -7.4290   32.0000   23.8050 C.3    91  LEU91       0.1561
      3  C         -6.0640   31.6080   23.2410 C.2    91  LEU91       0.2260
      4  O         -5.7470   31.9320   22.0940 O.2    91  LEU91      -0.2867
      5  CB        -7.3800   33.2190   24.7490 C.3    91  LEU91       0.0270
      6  CG        -8.6030   34.1910   24.7690 C.3    91  LEU91       0.0019
      7  CD1      -10.0390   33.5680   24.9690 C.3    91  LEU91       0.0001
      8  CD2       -8.3940   35.3560   25.7580 C.3    91  LEU91       0.0001
      9  N         -6.5410   29.1330   20.2440 N.3    94  ARG94      -0.1245
     10  CA        -6.9190   29.8270   19.0170 C.3    94  ARG94       0.1563
     11  C         -5.7550   30.5910   18.4170 C.2    94  ARG94       0.2260
     12  O         -5.4680   30.4150   17.2330 O.2    94  ARG94      -0.2867
     13  CB        -8.1390   30.7240   19.2240 C.3    94  ARG94       0.0307
     14  CG        -9.4380   29.9510   19.1370 C.3    94  ARG94       0.0489
     15  CD       -10.6680   30.8090   19.4050 C.3    94  ARG94       0.2205
     16  NE       -11.7260   29.9740   19.9860 N.pl3  94  ARG94      -0.0865
     17  CZ       -12.2620   30.1620   21.1890 C.cat  94  ARG94       0.5346
     18  NH1      -11.8690   31.1820   21.9550 N.pl3  94  ARG94       0.1354
     19  NH2      -13.2140   29.3410   21.6140 N.pl3  94  ARG94       0.1354
     20  N        -14.0130   32.8440   11.8210 N.3   102  ASN102     -0.1240
     21  CA       -14.9830   32.1430   12.6100 C.3   102  ASN102      0.1653
     22  C        -16.2570   31.9620   11.8470 C.2   102  ASN102      0.2266
     23  O        -16.8590   32.9350   11.3880 O.2   102  ASN102     -0.2867
     24  CB       -15.2370   32.8380   13.9260 C.3   102  ASN102      0.1155
     25  CG       -16.1850   32.0670   14.7940 C.2   102  ASN102      0.2627
     26  OD1      -17.2650   32.5520   15.1090 O.2   102  ASN102     -0.2716
     27  ND2      -15.8080   30.8430   15.1660 N.am  102  ASN102     -0.0877
     28  N        -20.0790   30.5400   12.0200 N.3   104  ARG104     -0.1245
     29  CA       -21.2060   30.1320   12.8420 C.3   104  ARG104      0.1563
     30  C        -22.5010   30.0460   12.0610 C.2   104  ARG104      0.2260
     31  O        -23.0240   31.0580   11.6240 O.2   104  ARG104     -0.2867
     32  CB       -21.3360   31.0650   14.0410 C.3   104  ARG104      0.0307
     33  CG       -20.2680   30.7560   15.1080 C.3   104  ARG104      0.0489
     34  CD       -20.1780   31.7880   16.1840 C.3   104  ARG104      0.2205
     35  NE       -21.4590   31.8560   16.8600 N.pl3 104  ARG104     -0.0865
     36  CZ       -21.7260   32.4900   17.9980 C.cat 104  ARG104      0.5346
     37  NH1      -20.7960   33.1350   18.6700 N.pl3 104  ARG104      0.1354
     38  NH2      -22.9630   32.4680   18.4610 N.pl3 104  ARG104      0.1354
     39  N        -16.8610   35.3510   10.4550 N.3   132  ARG132     -0.1245
     40  CA       -16.3360   36.5000   11.1890 C.3   132  ARG132      0.1563
     41  C        -14.8140   36.5620   11.1410 C.2   132  ARG132      0.2260
     42  O        -14.1540   35.5800   11.4760 O.2   132  ARG132     -0.2867
     43  CB       -16.8060   36.4120   12.6410 C.3   132  ARG132      0.0307
     44  CG       -16.3240   37.5100   13.5260 C.3   132  ARG132      0.0489
     45  CD       -16.6970   37.2490   14.9910 C.3   132  ARG132      0.2205
     46  NE       -15.8410   38.0660   15.8400 N.pl3 132  ARG132     -0.0865
     47  CZ       -15.7250   37.9630   17.1550 C.cat 132  ARG132      0.5346
     48  NH1      -16.4590   37.0870   17.8470 N.pl3 132  ARG132      0.1354
     49  NH2      -14.8660   38.7670   17.7840 N.pl3 132  ARG132      0.1354
     50  N        -11.4400   37.1940   12.7550 N.3   134  LEU134     -0.1245
     51  CA       -11.1100   37.0500   14.1820 C.3   134  LEU134      0.1561
     52  C         -9.9050   37.8510   14.6480 C.2   134  LEU134      0.2260
     53  O         -9.7850   38.1870   15.8250 O.2   134  LEU134     -0.2867
     54  CB       -10.8210   35.5950   14.5200 C.3   134  LEU134      0.0270
     55  CG       -11.9770   34.6250   14.7700 C.3   134  LEU134      0.0019
     56  CD1      -11.4470   33.3320   15.4040 C.3   134  LEU134      0.0001
     57  CD2      -13.0870   35.2380   15.6510 C.3   134  LEU134      0.0001
     58  N        -19.7160   25.6220   15.7210 N.3   259  SER259     -0.1217
     59  CA       -18.7180   26.6390   15.4180 C.3   259  SER259      0.1889
     60  C        -17.4720   26.0130   14.7980 C.2   259  SER259      0.2288
     61  O        -17.0260   24.9520   15.2260 O.2   259  SER259     -0.2866
     62  CB       -18.3240   27.3930   16.6810 C.3   259  SER259      0.2089
     63  OG       -17.0580   28.0200   16.4910 O.3   259  SER259     -0.2183
     64  N        -13.4370   27.3010   13.6260 N.3   261  SER261     -0.1217
     65  CA       -12.4200   28.3340   13.5410 C.3   261  SER261      0.1889
     66  C        -11.2920   27.8770   12.6280 C.2   261  SER261      0.2288
     67  O        -10.6690   26.8240   12.8560 O.2   261  SER261     -0.2866
     68  CB       -11.9330   28.7360   14.9250 C.3   261  SER261      0.2089
     69  OG       -12.9320   29.5440   15.5350 O.3   261  SER261     -0.2183
     70  N        -16.0370   23.3500   17.4720 N.3   270  GLU270     -0.1231
     71  CA       -16.5720   23.3050   18.8130 C.3   270  GLU270      0.1684
     72  C        -18.0590   23.7200   18.8350 C.2   270  GLU270      0.2434
     73  O        -18.5580   24.4060   17.9240 O.2   270  GLU270     -0.2733
     74  CB       -15.7550   24.2360   19.7050 C.3   270  GLU270      0.0402
     75  CG       -16.1380   25.6990   19.5780 C.3   270  GLU270      0.1161
     76  CD       -14.9940   26.6390   19.9020 C.2   270  GLU270      0.3649
     77  OE1      -14.7680   26.9540   21.0970 O.co2 270  GLU270     -0.2457
     78  OE2      -14.3460   27.0870   18.9310 O.co2 270  GLU270     -0.2457
     79  N        -18.7820   23.2910   19.8750 N.am  271  PRO271     -0.2718
     80  CA       -20.0860   23.8620   20.0730 C.3   271  PRO271      0.1535
     81  C        -19.9170   25.2330   20.6520 C.2   271  PRO271      0.2598
     82  O        -18.9880   25.4640   21.4340 O.2   271  PRO271     -0.2715
     83  CB       -20.7150   22.9360   21.1210 C.3   271  PRO271      0.0310
     84  CG       -19.5990   22.3010   21.8030 C.3   271  PRO271      0.0237
     85  CD       -18.5080   22.1760   20.8000 C.3   271  PRO271      0.0939
     86  N        -20.8140   26.1360   20.2840 N.am  272  VAL272     -0.1978
     87  CA       -20.8660   27.4740   20.8640 C.3   272  VAL272      0.1596
     88  C        -21.0770   27.4500   22.3870 C.2   272  VAL272      0.2287
     89  O        -20.5150   28.2840   23.1150 O.2   272  VAL272     -0.2864
     90  CB       -21.9780   28.2950   20.1850 C.3   272  VAL272      0.0276
     91  CG1      -22.2180   29.6850   20.8840 C.3   272  VAL272      0.0022
     92  CG2      -21.6820   28.3940   18.6780 C.3   272  VAL272      0.0022
@<TRIPOS>BOND
     1    39    40    1
     2    41    40    1
     3    41    42    2
     4    40    43    1
     5    23    22    2
     6    31    30    2
     7    20    21    1
     8    22    21    1
     9    28    29    1
    10    30    29    1
    11    21    24    1
    12    66    67    2
    13    66    65    1
    14    43    44    1
    15    50    51    1
    16    29    32    1
    17    44    45    1
    18    65    64    1
    19    65    68    1
    20    24    25    1
    21    32    33    1
    22    51    54    1
    23    51    52    1
    24    54    55    1
    25    52    53    2
    26    55    56    1
    27    55    57    1
    28    25    26    2
    29    25    27   am
    30    60    61    2
    31    60    59    1
    32    68    69    1
    33    45    46    1
    34    33    34    1
    35    59    58    1
    36    59    62    1
    37    46    47    2
    38    34    35    1
    39    63    62    1
    40    35    36    2
    41    47    49    1
    42    47    48    1
    43    12    11    2
    44    70    71    1
    45    73    72    2
    46    36    38    1
    47    36    37    1
    48    11    10    1
    49    92    90    1
    50    71    72    1
    51    71    74    1
    52    72    79   am
    53    78    76   ar
    54    10    13    1
    55    10     9    1
    56    14    13    1
    57    14    15    1
    58    15    16    1
    59    75    74    1
    60    75    76    1
    61    79    80    1
    62    79    85    1
    63    76    77   ar
    64    16    17    2
    65    80    81    1
    66    80    83    1
    67    90    87    1
    68    90    91    1
    69    86    81   am
    70    86    87    1
    71    81    82    2
    72    85    84    1
    73    87    88    1
    74    83    84    1
    75    17    19    1
    76    17    18    1
    77     4     3    2
    78    88    89    2
    79     3     2    1
    80     2     1    1
    81     2     5    1
    82     5     6    1
    83     6     7    1
    84     6     8    1
