@<TRIPOS>MOLECULE
tmp/2ztwA00.pdb
 97 94 0 0 0
SMALL
GASTEIGER

@<TRIPOS>ATOM
      1  N        -20.2400   19.4880   30.3930 N.3    11  ILE11      -0.1245
      2  CA       -20.8930   18.6370   29.3930 C.3    11  ILE11       0.1561
      3  C        -19.9940   18.3540   28.1780 C.2    11  ILE11       0.2260
      4  O        -20.3280   17.4970   27.3460 O.2    11  ILE11      -0.2867
      5  CB       -22.2810   19.1670   28.9720 C.3    11  ILE11       0.0252
      6  CG1      -22.1440   20.5060   28.2310 C.3    11  ILE11       0.0019
      7  CG2      -23.2120   19.2550   30.1990 C.3    11  ILE11       0.0019
      8  CD1      -23.4530   21.0440   27.6370 C.3    11  ILE11       0.0001
      9  N        -29.8550   27.1650   22.2090 N.3   254  LEU254     -0.1231
     10  CA       -28.4000   27.1110   22.3300 C.3   254  LEU254      0.1693
     11  C        -27.7990   25.7520   21.9460 C.2   254  LEU254      0.2592
     12  O        -26.7340   25.7050   21.3460 O.2   254  LEU254     -0.2718
     13  CB       -27.9710   27.5130   23.7460 C.3   254  LEU254      0.0284
     14  CG       -26.4740   27.6200   24.1060 C.3   254  LEU254      0.0019
     15  CD1      -25.6350   28.6100   23.2240 C.3   254  LEU254      0.0001
     16  CD2      -26.3210   27.9870   25.5460 C.3   254  LEU254      0.0001
     17  N        -28.5030   24.6580   22.2350 N.am  255  GLY255     -0.1957
     18  CA       -27.9970   23.2970   22.0240 C.3   255  GLY255      0.1869
     19  C        -27.8900   22.8690   20.5790 C.2   255  GLY255      0.2309
     20  O        -27.3440   21.7790   20.2700 O.2   255  GLY255     -0.2863
     21  N        -21.8710   26.4900   22.8620 N.3   273  HIS273     -0.1226
     22  CA       -22.1730   26.4020   24.2680 C.3   273  HIS273      0.1752
     23  C        -20.9390   26.1300   25.0840 C.2   273  HIS273      0.2597
     24  O        -19.9250   25.5520   24.6010 O.2   273  HIS273     -0.2718
     25  CB       -23.2850   25.3830   24.5660 C.3   273  HIS273      0.0759
     26  CG       -22.9020   23.9570   24.3370 C.ar  273  HIS273      0.0818
     27  ND1      -21.8510   23.3500   24.9900 N.ar  273  HIS273     -0.2268
     28  CD2      -23.4560   23.0060   23.5500 C.ar  273  HIS273      0.1154
     29  CE1      -21.7600   22.0930   24.5950 C.ar  273  HIS273      0.1986
     30  NE2      -22.7190   21.8600   23.7170 N.ar  273  HIS273     -0.2212
     31  N        -21.0330   26.6050   26.3210 N.am  274  GLY274     -0.1942
     32  CA       -20.0220   26.3820   27.3190 C.3   274  GLY274      0.2014
     33  C        -20.2370   25.0160   27.9360 C.2   274  GLY274      0.2640
     34  O        -20.9520   24.1530   27.3780 O.2   274  GLY274     -0.2714
     35  N        -19.6170   24.8410   29.0980 N.am  275  SER275     -0.1935
     36  CA       -19.4770   23.5610   29.7750 C.3   275  SER275      0.2055
     37  C        -20.6730   23.2180   30.6640 C.2   275  SER275      0.2643
     38  O        -20.7590   22.1110   31.2060 O.2   275  SER275     -0.2714
     39  CB       -18.2080   23.6000   30.6100 C.3   275  SER275      0.2130
     40  OG       -18.3270   24.5840   31.6250 O.3   275  SER275     -0.2179
     41  N        -21.5860   24.1730   30.8140 N.am  276  ALA276     -0.1963
     42  CA       -22.8740   23.9350   31.4880 C.3   276  ALA276      0.1713
     43  C        -22.8240   23.1530   32.8240 C.2   276  ALA276      0.2458
     44  O        -23.5140   22.1390   32.9800 O.2   276  ALA276     -0.2730
     45  CB       -23.8670   23.2640   30.5050 C.3   276  ALA276      0.0333
     46  N        -22.0260   23.6200   33.7960 N.am  277  PRO277     -0.2716
     47  CA       -21.8840   22.9160   35.0860 C.3   277  PRO277      0.1536
     48  C        -23.2080   22.4890   35.7420 C.2   277  PRO277      0.2599
     49  O        -23.2910   21.4050   36.2920 O.2   277  PRO277     -0.2715
     50  CB       -21.1790   23.9470   35.9490 C.3   277  PRO277      0.0310
     51  CG       -20.3540   24.6800   34.9880 C.3   277  PRO277      0.0237
     52  CD       -21.1550   24.8030   33.7360 C.3   277  PRO277      0.0939
     53  N        -24.2320   23.3320   35.6440 N.am  278  ASP278     -0.1958
     54  CA       -25.5560   23.0450   36.1880 C.3   278  ASP278      0.1840
     55  C        -26.2350   21.7810   35.6510 C.2   278  ASP278      0.2621
     56  O        -27.2400   21.3550   36.2320 O.2   278  ASP278     -0.2715
     57  CB       -26.4990   24.2530   35.9960 C.3   278  ASP278      0.1450
     58  CG       -26.6970   24.6420   34.5090 C.2   278  ASP278      0.3671
     59  OD1      -25.7370   24.4750   33.7060 O.co2 278  ASP278     -0.2456
     60  OD2      -27.8060   25.1400   34.1510 O.co2 278  ASP278     -0.2456
     61  N        -25.7290   21.1900   34.5620 N.am  279  ILE279     -0.1977
     62  CA       -26.3020   19.9380   34.0360 C.3   279  ILE279      0.1596
     63  C        -25.2600   18.8530   33.7260 C.2   279  ILE279      0.2287
     64  O        -25.6300   17.7500   33.3230 O.2   279  ILE279     -0.2864
     65  CB       -27.2320   20.1440   32.7880 C.3   279  ILE279      0.0276
     66  CG1      -26.4650   20.8240   31.6350 C.3   279  ILE279      0.0022
     67  CG2      -28.5480   20.8770   33.1540 C.3   279  ILE279      0.0022
     68  CD1      -27.0630   20.5790   30.2590 C.3   279  ILE279      0.0001
     69  N        -28.2220   14.7160   30.0490 N.3   284  ILE284     -0.1231
     70  CA       -29.2970   15.4020   29.3150 C.3   284  ILE284      0.1692
     71  C        -28.8500   16.4480   28.3010 C.2   284  ILE284      0.2592
     72  O        -29.6510   16.9080   27.4900 O.2   284  ILE284     -0.2718
     73  CB       -30.3670   16.0360   30.2420 C.3   284  ILE284      0.0266
     74  CG1      -29.7890   17.1760   31.0660 C.3   284  ILE284      0.0019
     75  CG2      -31.0450   14.9530   31.1290 C.3   284  ILE284      0.0020
     76  CD1      -30.8650   17.8770   31.8470 C.3   284  ILE284      0.0001
     77  N        -27.5850   16.8360   28.3190 N.am  285  ALA285     -0.1966
     78  CA       -27.1550   17.8730   27.4000 C.3   285  ALA285      0.1728
     79  C        -27.5290   17.4750   25.9640 C.2   285  ALA285      0.2616
     80  O        -27.3480   16.3190   25.5720 O.2   285  ALA285     -0.2715
     81  CB       -25.6780   18.0830   27.5220 C.3   285  ALA285      0.0334
     82  N        -28.0680   18.4300   25.1970 N.am  286  ASN286     -0.1972
     83  CA       -28.3320   18.2520   23.7720 C.3   286  ASN286      0.1688
     84  C        -27.0260   18.1330   23.0140 C.2   286  ASN286      0.2292
     85  O        -26.2440   19.0610   23.0250 O.2   286  ASN286     -0.2864
     86  CB       -29.0630   19.4710   23.2550 C.3   286  ASN286      0.1181
     87  CG       -29.5090   19.3230   21.8180 C.2   286  ASN286      0.2629
     88  OD1      -29.0790   18.4160   21.1000 O.2   286  ASN286     -0.2716
     89  ND2      -30.3810   20.2260   21.3800 N.am  286  ASN286     -0.0877
     90  N        -34.1630   20.4530   25.7500 N.3   326  ASP326     -0.1239
     91  CA       -34.1020   21.8830   25.4480 C.3   326  ASP326      0.1674
     92  C        -34.9630   22.2150   24.2410 C.2   326  ASP326      0.2266
     93  O        -35.2770   23.3700   24.0170 O.2   326  ASP326     -0.2867
     94  CB       -32.6720   22.3620   25.2390 C.3   326  ASP326      0.1410
     95  CG       -31.8900   21.4420   24.3290 C.2   326  ASP326      0.3668
     96  OD1      -31.9830   20.2250   24.5710 O.co2 326  ASP326     -0.2456
     97  OD2      -31.2000   21.9160   23.3820 O.co2 326  ASP326     -0.2456
@<TRIPOS>BOND
     1    20    19    2
     2    19    18    1
     3    88    87    2
     4    12    11    2
     5    89    87   am
     6    87    86    1
     7    11    17   am
     8    11    10    1
     9    18    17    1
    10     9    10    1
    11    10    13    1
    12    21    22    1
    13    84    85    2
    14    84    83    1
    15    15    14    1
    16    86    83    1
    17    97    95   ar
    18    28    30   ar
    19    28    26   ar
    20    30    29   ar
    21    13    14    1
    22    83    82    1
    23    93    92    2
    24    14    16    1
    25    92    91    1
    26    22    25    1
    27    22    23    1
    28    95    96   ar
    29    95    94    1
    30    26    25    1
    31    26    27   ar
    32    29    27   ar
    33    24    23    2
    34    23    31   am
    35    82    79   am
    36    94    91    1
    37    91    90    1
    38    80    79    2
    39    79    78    1
    40    31    32    1
    41    32    33    1
    42     4     3    2
    43    34    33    2
    44    78    81    1
    45    78    77    1
    46    72    71    2
    47     8     6    1
    48    33    35   am
    49     3     2    1
    50     6     5    1
    51    71    77   am
    52    71    70    1
    53     5     2    1
    54     5     7    1
    55    35    36    1
    56    70    69    1
    57    70    73    1
    58     2     1    1
    59    36    39    1
    60    36    37    1
    61    73    74    1
    62    73    75    1
    63    68    66    1
    64    45    42    1
    65    39    40    1
    66    37    41   am
    67    37    38    2
    68    41    42    1
    69    74    76    1
    70    42    43    1
    71    66    65    1
    72    65    67    1
    73    65    62    1
    74    43    44    2
    75    43    46   am
    76    64    63    2
    77    59    58   ar
    78    63    62    1
    79    52    46    1
    80    52    51    1
    81    46    47    1
    82    62    61    1
    83    60    58   ar
    84    58    57    1
    85    61    55   am
    86    51    50    1
    87    47    48    1
    88    47    50    1
    89    53    48   am
    90    53    54    1
    91    55    54    1
    92    55    56    2
    93    48    49    2
    94    57    54    1
