@<TRIPOS>MOLECULE
tmp/2zu0C00.pdb
 98 93 0 0 0
SMALL
GASTEIGER

@<TRIPOS>ATOM
      1  N         52.5150   35.8020  -11.8430 N.3    11  VAL11      -0.1231
      2  CA        51.5520   34.8630  -12.4030 C.3    11  VAL11       0.1692
      3  C         52.1930   34.2590  -13.6450 C.2    11  VAL11       0.2591
      4  O         52.5930   34.9860  -14.5530 O.2    11  VAL11      -0.2718
      5  CB        50.2500   35.5750  -12.8220 C.3    11  VAL11       0.0266
      6  CG1       49.2380   34.5520  -13.3150 C.3    11  VAL11       0.0020
      7  CG2       49.6860   36.3740  -11.6550 C.3    11  VAL11       0.0020
      8  N         52.2890   32.9350  -13.6880 N.am   12  GLU12      -0.1979
      9  CA        52.9150   32.2650  -14.8210 C.3    12  GLU12       0.1602
     10  C         54.2850   32.8870  -15.0830 C.2    12  GLU12       0.2287
     11  O         54.6560   33.1570  -16.2290 O.2    12  GLU12      -0.2864
     12  CB        52.0360   32.3800  -16.0690 C.3    12  GLU12       0.0415
     13  CG        50.6950   31.6760  -15.9410 C.3    12  GLU12       0.1163
     14  CD        49.9170   31.6660  -17.2400 C.2    12  GLU12       0.3649
     15  OE1       50.4010   31.0550  -18.2180 O.co2  12  GLU12      -0.2457
     16  OE2       48.8220   32.2700  -17.2840 O.co2  12  GLU12      -0.2457
     17  N         55.3510   35.8590  -14.5190 N.3    14  LYS14      -0.1245
     18  CA        55.3730   37.2830  -14.8320 C.3    14  LYS14       0.1561
     19  C         55.1360   38.0660  -13.5420 C.2    14  LYS14       0.2260
     20  O         54.1500   37.8330  -12.8420 O.2    14  LYS14      -0.2867
     21  CB        54.2810   37.6530  -15.8350 C.3    14  LYS14       0.0271
     22  CG        54.3140   39.1300  -16.1920 C.3    14  LYS14       0.0035
     23  CD        53.0560   39.6100  -16.8940 C.3    14  LYS14       0.0206
     24  CE        53.1570   41.1060  -17.1910 C.3    14  LYS14       0.1093
     25  NZ        53.4520   41.9160  -15.9640 N.3    14  LYS14      -0.1314
     26  N         53.7340   40.6520  -11.3590 N.3    16  ILE16      -0.1245
     27  CA        52.5620   41.5300  -11.3950 C.3    16  ILE16       0.1561
     28  C         52.6320   42.5460  -10.2530 C.2    16  ILE16       0.2260
     29  O         52.6750   43.7490  -10.4920 O.2    16  ILE16      -0.2867
     30  CB        51.2530   40.7120  -11.2670 C.3    16  ILE16       0.0252
     31  CG1       51.2510   39.5550  -12.2800 C.3    16  ILE16       0.0019
     32  CG2       50.0460   41.6260  -11.4550 C.3    16  ILE16       0.0019
     33  CD1       51.3180   39.9750  -13.7450 C.3    16  ILE16       0.0001
     34  N         44.2860   48.8990  -15.9300 N.3    36  ASN36      -0.1225
     35  CA        44.2780   47.4520  -16.0460 C.3    36  ASN36       0.1785
     36  C         45.7330   47.0220  -16.2050 C.2    36  ASN36       0.2598
     37  O         46.5360   47.7330  -16.8230 O.2    36  ASN36      -0.2718
     38  CB        43.4670   47.0260  -17.2730 C.3    36  ASN36       0.1169
     39  CG        41.9840   47.3450  -17.1360 C.2    36  ASN36       0.2627
     40  OD1       41.2940   47.5900  -18.1330 O.2    36  ASN36      -0.2716
     41  ND2       41.4840   47.3370  -15.8990 N.am   36  ASN36      -0.0877
     42  N         46.0800   45.8720  -15.6330 N.am   37  GLY37      -0.1942
     43  CA        47.4450   45.3860  -15.7380 C.3    37  GLY37       0.2014
     44  C         48.3590   45.8510  -14.6180 C.2    37  GLY37       0.2640
     45  O         49.5120   45.4450  -14.5590 O.2    37  GLY37      -0.2714
     46  N         47.8540   46.6880  -13.7160 N.am   38  SER38      -0.1935
     47  CA        48.6760   47.1820  -12.6230 C.3    38  SER38       0.2055
     48  C         48.5340   46.4730  -11.2790 C.2    38  SER38       0.2644
     49  O         49.0840   46.9330  -10.2770 O.2    38  SER38      -0.2714
     50  CB        48.4730   48.6880  -12.4440 C.3    38  SER38       0.2130
     51  OG        49.3770   49.3940  -13.2770 O.3    38  SER38      -0.2179
     52  N         47.7960   45.3670  -11.2470 N.am   39  GLY39      -0.1939
     53  CA        47.6860   44.6150  -10.0070 C.3    39  GLY39       0.2014
     54  C         46.3470   44.3820   -9.3360 C.2    39  GLY39       0.2639
     55  O         46.2730   43.5710   -8.4190 O.2    39  GLY39      -0.2714
     56  N         45.2940   45.0670   -9.7690 N.am   40  LYS40      -0.1963
     57  CA        43.9830   44.8960   -9.1440 C.3    40  LYS40       0.1728
     58  C         43.5660   43.4390   -8.8980 C.2    40  LYS40       0.2617
     59  O         43.2950   43.0580   -7.7650 O.2    40  LYS40      -0.2715
     60  CB        42.9030   45.5760   -9.9840 C.3    40  LYS40       0.0311
     61  CG        42.8960   47.0920   -9.9370 C.3    40  LYS40       0.0038
     62  CD        41.9240   47.6070  -10.9800 C.3    40  LYS40       0.0206
     63  CE        41.6830   49.0870  -10.8750 C.3    40  LYS40       0.1093
     64  NZ        40.6970   49.5080  -11.9190 N.3    40  LYS40      -0.1314
     65  N         43.5130   42.6320   -9.9560 N.am   41  SER41      -0.1936
     66  CA        43.0930   41.2290   -9.8350 C.3    41  SER41       0.2055
     67  C         44.0710   40.3310   -9.0950 C.2    41  SER41       0.2643
     68  O         43.6690   39.3930   -8.4050 O.2    41  SER41      -0.2714
     69  CB        42.8180   40.6310  -11.2190 C.3    41  SER41       0.2130
     70  OG        41.7510   41.3150  -11.8510 O.3    41  SER41      -0.2179
     71  N         45.3580   40.5960   -9.2510 N.am   42  THR42      -0.1950
     72  CA        46.3490   39.7900   -8.5660 C.3    42  THR42       0.1897
     73  C         46.2560   40.0460   -7.0630 C.2    42  THR42       0.2313
     74  O         46.4120   39.1250   -6.2590 O.2    42  THR42      -0.2863
     75  CB        47.7580   40.1150   -9.0650 C.3    42  THR42       0.1794
     76  OG1       47.8360   39.8080  -10.4600 O.3    42  THR42      -0.2208
     77  CG2       48.7990   39.3000   -8.3080 C.3    42  THR42       0.0378
     78  N         48.8710   31.8880   -7.8810 N.3    53  TYR53      -0.1241
     79  CA        49.5510   33.1640   -7.6730 C.3    53  TYR53       0.1605
     80  C         50.7550   33.0040   -6.7490 C.2    53  TYR53       0.2264
     81  O         50.6130   32.8840   -5.5330 O.2    53  TYR53      -0.2867
     82  CB        48.5610   34.1850   -7.1120 C.3    53  TYR53       0.0534
     83  CG        47.5060   34.5690   -8.1260 C.ar   53  TYR53      -0.0201
     84  CD1       47.5790   35.7800   -8.8140 C.ar   53  TYR53      -0.0009
     85  CD2       46.4710   33.6910   -8.4480 C.ar   53  TYR53      -0.0009
     86  CE1       46.6480   36.1050   -9.8000 C.ar   53  TYR53       0.0417
     87  CE2       45.5380   34.0020   -9.4320 C.ar   53  TYR53       0.0417
     88  CZ        45.6320   35.2100  -10.1040 C.ar   53  TYR53       0.1957
     89  OH        44.7170   35.5230  -11.0830 O.3    53  TYR53      -0.2866
     90  N         36.2430   44.6390   -7.9260 N.3   171  GLU171     -0.1245
     91  CA        35.6710   45.2220   -9.1360 C.3   171  GLU171      0.1567
     92  C         34.2420   44.7320   -9.3170 C.2   171  GLU171      0.2260
     93  O         33.7640   44.5730  -10.4390 O.2   171  GLU171     -0.2867
     94  CB        36.5050   44.8460  -10.3670 C.3   171  GLU171      0.0388
     95  CG        37.9680   45.2460  -10.2610 C.3   171  GLU171      0.1160
     96  CD        38.6430   45.3570  -11.6180 C.2   171  GLU171      0.3649
     97  OE1       39.8100   44.9310  -11.7420 O.co2 171  GLU171     -0.2457
     98  OE2       38.0090   45.8830  -12.5600 O.co2 171  GLU171     -0.2457
@<TRIPOS>BOND
     1    15    14   ar
     2    40    39    2
     3    16    14   ar
     4    38    39    1
     5    38    35    1
     6    14    13    1
     7    24    23    1
     8    24    25    1
     9    39    41   am
    10    23    22    1
    11    37    36    2
    12    11    10    2
    13    36    35    1
    14    36    42   am
    15    22    21    1
    16    12    13    1
    17    12     9    1
    18    35    34    1
    19    21    18    1
    20    43    42    1
    21    43    44    1
    22    10     9    1
    23    18    17    1
    24    18    19    1
    25     9     8    1
    26    44    45    2
    27    44    46   am
    28     4     3    2
    29    33    31    1
    30    46    47    1
    31     8     3   am
    32     3     2    1
    33    19    20    2
    34     6     5    1
    35    51    50    1
    36     5     2    1
    37     5     7    1
    38    47    50    1
    39    47    48    1
    40    98    96   ar
    41     2     1    1
    42    31    30    1
    43    64    63    1
    44    70    69    1
    45    97    96   ar
    46    96    95    1
    47    32    30    1
    48    27    26    1
    49    27    30    1
    50    27    28    1
    51    48    52   am
    52    48    49    2
    53    52    53    1
    54    69    66    1
    55    89    88    1
    56    62    63    1
    57    62    61    1
    58    29    28    2
    59    76    75    1
    60    93    92    2
    61    94    95    1
    62    94    91    1
    63    88    86   ar
    64    88    87   ar
    65    53    54    1
    66    60    61    1
    67    60    57    1
    68    65    66    1
    69    65    58   am
    70    66    67    1
    71    86    84   ar
    72    56    54   am
    73    56    57    1
    74    87    85   ar
    75    54    55    2
    76    92    91    1
    77    71    67   am
    78    71    72    1
    79    57    58    1
    80    91    90    1
    81    67    68    2
    82    75    72    1
    83    75    77    1
    84    58    59    2
    85    84    83   ar
    86    72    73    1
    87    85    83   ar
    88    83    82    1
    89    78    79    1
    90    79    82    1
    91    79    80    1
    92    73    74    2
    93    80    81    2
