@<TRIPOS>MOLECULE
tmp/2zu2A00.pdb
 88 88 0 0 0
SMALL
GASTEIGER

@<TRIPOS>ATOM
      1  N         13.1000    9.7250   28.5890 N.3   139  PHE139     -0.1227
      2  CA        13.3360    9.5650   30.0160 C.3   139  PHE139      0.1736
      3  C         13.2200   10.8960   30.7380 C.2   139  PHE139      0.2595
      4  O         13.3210   11.9630   30.1330 O.2   139  PHE139     -0.2718
      5  CB        14.7620    9.0560   30.2750 C.3   139  PHE139      0.0547
      6  CG        15.0860    7.7250   29.6540 C.ar  139  PHE139     -0.0202
      7  CD1       14.5320    6.5480   30.1520 C.ar  139  PHE139     -0.0042
      8  CD2       16.0120    7.6420   28.6150 C.ar  139  PHE139     -0.0042
      9  CE1       14.9030    5.3090   29.6290 C.ar  139  PHE139     -0.0003
     10  CE2       16.3900    6.4090   28.0840 C.ar  139  PHE139     -0.0003
     11  CZ        15.8350    5.2380   28.5950 C.ar  139  PHE139     -0.0000
     12  N         13.0060   10.8200   32.0440 N.am  140  ILE140     -0.1966
     13  CA        12.9780   12.0090   32.8720 C.3   140  ILE140      0.1727
     14  C         13.8940   11.6290   34.0260 C.2   140  ILE140      0.2616
     15  O         14.3000   10.4700   34.1340 O.2   140  ILE140     -0.2715
     16  CB        11.5590   12.3590   33.3700 C.3   140  ILE140      0.0290
     17  CG1       10.9700   11.2130   34.1880 C.3   140  ILE140      0.0022
     18  CG2       10.6820   12.7100   32.1780 C.3   140  ILE140      0.0023
     19  CD1        9.5800   11.5230   34.7220 C.3   140  ILE140      0.0001
     20  N         14.2460   12.5860   34.8710 N.am  141  ASN141     -0.1958
     21  CA        15.1410   12.2820   35.9720 C.3   141  ASN141      0.1819
     22  C         14.6530   11.1010   36.7980 C.2   141  ASN141      0.2622
     23  O         13.4570   10.9540   37.0530 O.2   141  ASN141     -0.2715
     24  CB        15.3330   13.5100   36.8580 C.3   141  ASN141      0.1195
     25  CG        16.1470   14.5860   36.1740 C.2   141  ASN141      0.2630
     26  OD1       17.2030   14.3070   35.5990 O.2   141  ASN141     -0.2716
     27  ND2       15.6710   15.8220   36.2380 N.am  141  ASN141     -0.0877
     28  N         15.5960   10.2570   37.1970 N.am  142  GLY142     -0.1940
     29  CA        15.2670    9.0950   37.9960 C.3   142  GLY142      0.2014
     30  C         15.3160    7.8050   37.2040 C.2   142  GLY142      0.2639
     31  O         15.1740    6.7290   37.7780 O.2   142  GLY142     -0.2714
     32  N         15.5290    7.9070   35.8920 N.am  143  ALA143     -0.1963
     33  CA        15.5720    6.7240   35.0330 C.3   143  ALA143      0.1728
     34  C         16.9260    6.0130   35.0120 C.2   143  ALA143      0.2616
     35  O         17.0440    4.9350   34.4360 O.2   143  ALA143     -0.2715
     36  CB        15.1670    7.0930   33.6100 C.3   143  ALA143      0.0334
     37  N         17.9440    6.6060   35.6280 N.am  144  CYS144     -0.1968
     38  CA        19.2550    5.9630   35.6440 C.3   144  CYS144      0.1712
     39  C         19.1770    4.5440   36.2000 C.2   144  CYS144      0.2296
     40  O         18.5180    4.2820   37.2130 O.2   144  CYS144     -0.2864
     41  CB        20.2460    6.7960   36.4540 C.3   144  CYS144      0.0983
     42  SG        20.5530    8.3670   35.6600 S.3   144  CYS144     -0.0798
     43  N         20.9600    2.3170   31.6970 N.3   162  HIS162     -0.1226
     44  CA        20.9010    3.7490   31.4260 C.3   162  HIS162      0.1752
     45  C         21.8050    4.5730   32.3370 C.2   162  HIS162      0.2596
     46  O         21.7940    4.4000   33.5580 O.2   162  HIS162     -0.2718
     47  CB        19.4660    4.2590   31.5210 C.3   162  HIS162      0.0759
     48  CG        19.3070    5.6580   31.0220 C.ar  162  HIS162      0.0818
     49  ND1       19.6560    6.0300   29.7410 N.ar  162  HIS162     -0.2268
     50  CD2       18.8920    6.7870   31.6450 C.ar  162  HIS162      0.1154
     51  CE1       19.4660    7.3290   29.5970 C.ar  162  HIS162      0.1986
     52  NE2       19.0040    7.8120   30.7370 N.ar  162  HIS162     -0.2212
     53  N         22.5650    5.4880   31.7350 N.am  163  GLN163     -0.1965
     54  CA        23.5200    6.3060   32.4850 C.3   163  GLN163      0.1733
     55  C         23.3680    7.8220   32.3870 C.2   163  GLN163      0.2616
     56  O         23.3620    8.5180   33.4040 O.2   163  GLN163     -0.2715
     57  CB        24.9480    5.9550   32.0520 C.3   163  GLN163      0.0408
     58  CG        25.4070    4.5290   32.3530 C.3   163  GLN163      0.0908
     59  CD        26.0880    4.3860   33.7070 C.2   163  GLN163      0.2608
     60  OE1       26.3900    5.3730   34.3730 O.2   163  GLN163     -0.2717
     61  NE2       26.3430    3.1460   34.1120 N.am  163  GLN163     -0.0878
     62  N         23.2610    8.3400   31.1690 N.am  164  ILE164     -0.1963
     63  CA        23.1840    9.7850   30.9970 C.3   164  ILE164      0.1727
     64  C         22.3560   10.3070   29.8290 C.2   164  ILE164      0.2616
     65  O         21.9150    9.5590   28.9570 O.2   164  ILE164     -0.2715
     66  CB        24.6070   10.3680   30.8480 C.3   164  ILE164      0.0290
     67  CG1       25.3550    9.6080   29.7510 C.3   164  ILE164      0.0022
     68  CG2       25.3620   10.2780   32.1660 C.3   164  ILE164      0.0023
     69  CD1       26.8390    9.9660   29.6310 C.3   164  ILE164      0.0001
     70  N         22.1500   11.6200   29.8400 N.am  165  GLU165     -0.1977
     71  CA        21.4300   12.3100   28.7820 C.3   165  GLU165      0.1602
     72  C         22.3500   13.4480   28.3480 C.2   165  GLU165      0.2287
     73  O         22.8240   14.2140   29.1850 O.2   165  GLU165     -0.2864
     74  CB        20.0980   12.8820   29.2910 C.3   165  GLU165      0.0415
     75  CG        19.2790   13.5460   28.1900 C.3   165  GLU165      0.1163
     76  CD        17.9260   14.0510   28.6600 C.2   165  GLU165      0.3649
     77  OE1       17.8710   15.1080   29.3270 O.co2 165  GLU165     -0.2457
     78  OE2       16.9120   13.3850   28.3620 O.co2 165  GLU165     -0.2457
     79  N         20.4250    9.8330   24.4870 N.3   171  HIS171     -0.1241
     80  CA        20.6690    9.0410   25.6820 C.3   171  HIS171      0.1621
     81  C         21.8080    8.0560   25.5300 C.2   171  HIS171      0.2264
     82  O         21.9950    7.4600   24.4700 O.2   171  HIS171     -0.2867
     83  CB        19.3870    8.3170   26.0800 C.3   171  HIS171      0.0745
     84  CG        18.2500    9.2480   26.3540 C.ar  171  HIS171      0.0817
     85  ND1       17.1270    9.3100   25.5560 N.ar  171  HIS171     -0.2268
     86  CD2       18.0900   10.1980   27.3050 C.ar  171  HIS171      0.1154
     87  CE1       16.3260   10.2600   26.0060 C.ar  171  HIS171      0.1986
     88  NE2       16.8870   10.8140   27.0660 N.ar  171  HIS171     -0.2212
@<TRIPOS>BOND
     1    82    81    2
     2    79    80    1
     3    81    80    1
     4    85    87   ar
     5    85    84   ar
     6    80    83    1
     7    87    88   ar
     8    83    84    1
     9    84    86   ar
    10    88    86   ar
    11    10    11   ar
    12    10     8   ar
    13    75    76    1
    14    75    74    1
    15    72    71    1
    16    72    73    2
    17    78    76   ar
    18     1     2    1
    19    11     9   ar
    20     8     6   ar
    21    76    77   ar
    22    71    74    1
    23    71    70    1
    24    65    64    2
    25    51    49   ar
    26    51    52   ar
    27     9     7   ar
    28    69    67    1
    29     6     7   ar
    30     6     5    1
    31    49    48   ar
    32    67    66    1
    33    64    70   am
    34    64    63    1
    35     2     5    1
    36     2     3    1
    37     4     3    2
    38    52    50   ar
    39     3    12   am
    40    66    63    1
    41    66    68    1
    42    63    62    1
    43    48    47    1
    44    48    50   ar
    45    62    55   am
    46    44    47    1
    47    44    43    1
    48    44    45    1
    49    53    45   am
    50    53    54    1
    51    12    13    1
    52    57    58    1
    53    57    54    1
    54    18    16    1
    55    45    46    2
    56    58    59    1
    57    55    54    1
    58    55    56    2
    59    13    16    1
    60    13    14    1
    61    16    17    1
    62    36    33    1
    63    59    61   am
    64    59    60    2
    65    14    15    2
    66    14    20   am
    67    17    19    1
    68    35    34    2
    69    20    21    1
    70    34    33    1
    71    34    37   am
    72    33    32    1
    73    26    25    2
    74    37    38    1
    75    38    39    1
    76    38    41    1
    77    42    41    1
    78    32    30   am
    79    21    22    1
    80    21    24    1
    81    25    27   am
    82    25    24    1
    83    39    40    2
    84    22    23    2
    85    22    28   am
    86    28    29    1
    87    30    31    2
    88    30    29    1
