@<TRIPOS>MOLECULE
tmp/2zu3A00.pdb
 160 155 0 0 0
SMALL
GASTEIGER

@<TRIPOS>ATOM
      1  N         14.0540   16.2630   13.0650 N.3    22  TYR22      -0.1241
      2  CA        14.4510   16.2090   14.4610 C.3    22  TYR22       0.1605
      3  C         15.7430   15.4190   14.7190 C.2    22  TYR22       0.2264
      4  O         16.2180   15.3460   15.8610 O.2    22  TYR22      -0.2867
      5  CB        13.3080   15.6440   15.3030 C.3    22  TYR22       0.0534
      6  CG        12.2310   16.6650   15.5620 C.ar   22  TYR22      -0.0201
      7  CD1       11.2920   16.9850   14.5780 C.ar   22  TYR22      -0.0009
      8  CD2       12.2220   17.4090   16.7610 C.ar   22  TYR22      -0.0009
      9  CE1       10.3970   17.9950   14.7600 C.ar   22  TYR22       0.0417
     10  CE2       11.3040   18.4530   16.9510 C.ar   22  TYR22       0.0417
     11  CZ        10.3890   18.7320   15.9270 C.ar   22  TYR22       0.1957
     12  OH         9.4790   19.7450   16.0910 O.3    22  TYR22      -0.2866
     13  N         18.2870    8.9170   12.5510 N.3    25  PHE25      -0.1241
     14  CA        17.9960    7.7030   13.2900 C.3    25  PHE25       0.1605
     15  C         18.2140    6.3990   12.5460 C.2    25  PHE25       0.2264
     16  O         18.1400    6.2940   11.3170 O.2    25  PHE25      -0.2867
     17  CB        16.5270    7.6850   13.7610 C.3    25  PHE25       0.0534
     18  CG        16.1090    8.9150   14.5100 C.ar   25  PHE25      -0.0203
     19  CD1       15.8460   10.1100   13.8470 C.ar   25  PHE25      -0.0042
     20  CD2       16.0250    8.8920   15.9320 C.ar   25  PHE25      -0.0042
     21  CE1       15.5060   11.2590   14.5810 C.ar   25  PHE25      -0.0003
     22  CE2       15.6910   10.0290   16.6410 C.ar   25  PHE25      -0.0003
     23  CZ        15.4300   11.2080   15.9780 C.ar   25  PHE25      -0.0000
     24  N         10.1090   10.0450   19.2780 N.3    40  HIS40      -0.1241
     25  CA        10.7290   11.3660   19.2110 C.3    40  HIS40       0.1621
     26  C         11.4200   11.6940   17.9040 C.2    40  HIS40       0.2264
     27  O         11.9980   12.7720   17.7790 O.2    40  HIS40      -0.2867
     28  CB        11.7260   11.5770   20.3440 C.3    40  HIS40       0.0745
     29  CG        12.7630   10.5140   20.4290 C.ar   40  HIS40       0.0817
     30  ND1       12.6450    9.4240   21.2760 N.ar   40  HIS40      -0.2268
     31  CD2       13.9200   10.3440   19.7460 C.ar   40  HIS40       0.1154
     32  CE1       13.6930    8.6320   21.1120 C.ar   40  HIS40       0.1986
     33  NE2       14.4790    9.1690   20.1880 N.ar   40  HIS40      -0.2212
     34  N          6.3820    5.0940   23.1560 N.3    71  GLU71      -0.1245
     35  CA         7.5560    5.6720   22.5180 C.3    71  GLU71       0.1567
     36  C          7.9600    5.1120   21.1570 C.2    71  GLU71       0.2260
     37  O          9.1210    5.1280   20.7940 O.2    71  GLU71      -0.2867
     38  CB         8.7700    5.6370   23.4860 C.3    71  GLU71       0.0388
     39  CG         9.8630    6.6230   23.0990 C.3    71  GLU71       0.1160
     40  CD         9.3680    8.0820   23.1490 C.2    71  GLU71       0.3649
     41  OE1        8.4510    8.3840   23.9730 O.co2  71  GLU71      -0.2457
     42  OE2        9.8960    8.9130   22.3690 O.co2  71  GLU71      -0.2457
     43  N          8.2060    3.6040   33.2120 N.3   125  LEU125     -0.1231
     44  CA         9.3190    4.5380   33.2790 C.3   125  LEU125      0.1693
     45  C          8.8640    5.9670   32.9530 C.2   125  LEU125      0.2592
     46  O          8.2050    6.2060   31.9320 O.2   125  LEU125     -0.2718
     47  CB        10.4330    4.1380   32.2830 C.3   125  LEU125      0.0284
     48  CG        11.5970    5.1340   32.1990 C.3   125  LEU125      0.0019
     49  CD1       12.3600    5.1920   33.5920 C.3   125  LEU125      0.0001
     50  CD2       12.5810    4.7210   31.0850 C.3   125  LEU125      0.0001
     51  N          9.2000    6.9250   33.8150 N.am  126  ASN126     -0.1960
     52  CA         8.8200    8.2830   33.4730 C.3   126  ASN126      0.1819
     53  C          9.9700    8.6240   32.5720 C.2   126  ASN126      0.2621
     54  O         11.0830    8.8620   33.0640 O.2   126  ASN126     -0.2715
     55  CB         8.7980    9.2080   34.6890 C.3   126  ASN126      0.1195
     56  CG         8.2830   10.6000   34.3390 C.2   126  ASN126      0.2630
     57  OD1        8.7750   11.2400   33.4060 O.2   126  ASN126     -0.2716
     58  ND2        7.2910   11.0700   35.0780 N.am  126  ASN126     -0.0877
     59  N          9.7260    8.6390   31.2640 N.am  127  LEU127     -0.1963
     60  CA        10.8040    8.8740   30.3140 C.3   127  LEU127      0.1728
     61  C         10.8540   10.2640   29.7470 C.2   127  LEU127      0.2617
     62  O         10.0180   10.6430   28.9490 O.2   127  LEU127     -0.2715
     63  CB        10.7220    7.8470   29.1670 C.3   127  LEU127      0.0311
     64  CG        11.7110    7.8410   27.9810 C.3   127  LEU127      0.0022
     65  CD1       13.1060    7.4360   28.4430 C.3   127  LEU127      0.0001
     66  CD2       11.2000    6.8500   26.9120 C.3   127  LEU127      0.0001
     67  N         11.8750   11.0120   30.1480 N.am  128  GLY128     -0.1940
     68  CA        12.0260   12.3780   29.6810 C.3   128  GLY128      0.2014
     69  C         10.8670   13.2030   30.2320 C.2   128  GLY128      0.2639
     70  O         10.4520   14.1990   29.6260 O.2   128  GLY128     -0.2714
     71  N         10.3320   12.7730   31.3780 N.am  129  GLY129     -0.1954
     72  CA         9.2030   13.4680   31.9690 C.3   129  GLY129      0.1869
     73  C          7.8620   12.9520   31.4570 C.2   129  GLY129      0.2309
     74  O          6.8260   13.5210   31.7820 O.2   129  GLY129     -0.2863
     75  N         24.7260    4.2430   27.2890 N.3   142  THR142     -0.1203
     76  CA        24.3410    4.6080   25.9400 C.3   142  THR142      0.1994
     77  C         24.4580    6.1130   25.7360 C.2   142  THR142      0.2618
     78  O         24.7620    6.8540   26.6710 O.2   142  THR142     -0.2717
     79  CB        22.9500    3.9620   25.5010 C.3   142  THR142      0.1784
     80  OG1       21.9660    4.1540   26.5350 O.3   142  THR142     -0.2211
     81  CG2       23.1370    2.3980   25.2130 C.3   142  THR142      0.0376
     82  N         24.2730    6.5430   24.4920 N.am  143  ARG143     -0.1965
     83  CA        24.4710    7.9350   24.0920 C.3   143  ARG143      0.1729
     84  C         23.3880    8.4860   23.1730 C.2   143  ARG143      0.2616
     85  O         22.6680    7.7310   22.4790 O.2   143  ARG143     -0.2715
     86  CB        25.7950    8.0220   23.3150 C.3   143  ARG143      0.0348
     87  CG        27.0100    7.5740   24.0900 C.3   143  ARG143      0.0492
     88  CD        27.2070    8.5250   25.2150 C.3   143  ARG143      0.2205
     89  NE        28.4900    8.3540   25.8690 N.pl3 143  ARG143     -0.0865
     90  CZ        28.6530    7.6810   27.0060 C.cat 143  ARG143      0.5346
     91  NH1       27.5910    7.1160   27.6010 N.pl3 143  ARG143      0.1354
     92  NH2       29.8650    7.5870   27.5500 N.pl3 143  ARG143      0.1354
     93  N         23.3200    9.8160   23.1320 N.am  144  ALA144     -0.1963
     94  CA        22.4020   10.4850   22.2430 C.3   144  ALA144      0.1728
     95  C         22.8330    9.9730   20.8650 C.2   144  ALA144      0.2616
     96  O         24.0130    9.6320   20.6760 O.2   144  ALA144     -0.2715
     97  CB        22.5980   11.9900   22.3410 C.3   144  ALA144      0.0334
     98  N         21.8940    9.8840   19.9190 N.am  145  GLY145     -0.1955
     99  CA        22.2400    9.4100   18.5850 C.3   145  GLY145      0.1869
    100  C         22.0660    7.9090   18.3720 C.2   145  GLY145      0.2309
    101  O         22.0780    7.3860   17.2080 O.2   145  GLY145     -0.2863
    102  N         19.3500    6.3780   19.4720 N.3   147  CYS147     -0.1235
    103  CA        17.9360    6.0580   19.4390 C.3   147  CYS147      0.1677
    104  C         17.5290    5.4990   18.0770 C.2   147  CYS147      0.2270
    105  O         17.9860    5.9520   17.0420 O.2   147  CYS147     -0.2867
    106  CB        17.1060    7.2650   19.8700 C.3   147  CYS147      0.0956
    107  SG        17.1970    7.5510   21.6780 S.3   147  CYS147     -0.0801
    108  N         15.8140    1.1530   20.7270 N.3   161  HIS161     -0.1226
    109  CA        16.4160    1.9930   21.7670 C.3   161  HIS161      0.1752
    110  C         15.7730    3.3800   21.7600 C.2   161  HIS161      0.2596
    111  O         15.7620    4.0620   20.7320 O.2   161  HIS161     -0.2718
    112  CB        17.9380    2.1590   21.5480 C.3   161  HIS161      0.0759
    113  CG        18.6140    2.9020   22.6700 C.ar  161  HIS161      0.0818
    114  ND1       18.8820    2.3050   23.8880 N.ar  161  HIS161     -0.2268
    115  CD2       19.0300    4.1900   22.7820 C.ar  161  HIS161      0.1154
    116  CE1       19.4260    3.1950   24.7030 C.ar  161  HIS161      0.1986
    117  NE2       19.5260    4.3410   24.0570 N.ar  161  HIS161     -0.2212
    118  N         15.2980    3.8240   22.9160 N.am  162  VAL162     -0.1966
    119  CA        14.6450    5.1270   22.9860 C.3   162  VAL162      0.1727
    120  C         15.1230    6.0600   24.0960 C.2   162  VAL162      0.2617
    121  O         14.7740    7.2430   24.1070 O.2   162  VAL162     -0.2715
    122  CB        13.1460    4.9810   23.1540 C.3   162  VAL162      0.0290
    123  CG1       12.5340    4.2820   21.8960 C.3   162  VAL162      0.0023
    124  CG2       12.8520    4.1040   24.4190 C.3   162  VAL162      0.0023
    125  N         15.9100    5.5590   25.0330 N.am  163  GLY163     -0.1940
    126  CA        16.3600    6.4470   26.0800 C.3   163  GLY163      0.2014
    127  C         17.4310    5.8620   26.9540 C.2   163  GLY163      0.2639
    128  O         17.8900    4.7420   26.8080 O.2   163  GLY163     -0.2714
    129  N         17.8670    6.6770   27.8900 N.am  164  GLY164     -0.1939
    130  CA        18.8800    6.1970   28.7950 C.3   164  GLY164      0.2014
    131  C         19.5320    7.3150   29.5630 C.2   164  GLY164      0.2638
    132  O         19.2430    8.4940   29.3900 O.2   164  GLY164     -0.2714
    133  N         20.3730    6.9000   30.4800 N.am  165  ASN165     -0.1972
    134  CA        21.1700    7.8300   31.2120 C.3   165  ASN165      0.1688
    135  C         22.0220    7.2180   32.2470 C.2   165  ASN165      0.2292
    136  O         21.6620    6.2380   32.9070 O.2   165  ASN165     -0.2864
    137  CB        20.3720    9.0060   31.7210 C.3   165  ASN165      0.1181
    138  CG        20.7360   10.2830   30.9420 C.2   165  ASN165      0.2629
    139  OD1       21.8680   10.4000   30.4050 O.2   165  ASN165     -0.2716
    140  ND2       19.8080   11.2280   30.8680 N.am  165  ASN165     -0.0877
    141  N         22.3550    3.1240   32.1670 N.3   168  GLN168     -0.1245
    142  CA        21.1950    2.2820   31.8670 C.3   168  GLN168      0.1566
    143  C         20.6570    2.7450   30.5410 C.2   168  GLN168      0.2260
    144  O         20.7480    3.9370   30.2160 O.2   168  GLN168     -0.2867
    145  CB        20.0690    2.4530   32.8740 C.3   168  GLN168      0.0367
    146  CG        20.1700    1.5900   34.0530 C.3   168  GLN168      0.0905
    147  CD        19.0210    1.8000   35.0000 C.2   168  GLN168      0.2608
    148  OE1       18.5580    2.9390   35.2170 O.2   168  GLN168     -0.2717
    149  NE2       18.5620    0.7150   35.5910 N.am  168  GLN168     -0.0878
    150  N         17.2480    2.0340   27.6820 N.3   170  PHE170     -0.1241
    151  CA        15.9250    1.4560   27.6230 C.3   170  PHE170      0.1605
    152  C         15.4370    1.3870   26.1960 C.2   170  PHE170      0.2264
    153  O         15.6790    2.3030   25.4360 O.2   170  PHE170     -0.2867
    154  CB        14.9100    2.2950   28.4410 C.3   170  PHE170      0.0534
    155  CG        15.2850    2.4910   29.8920 C.ar  170  PHE170     -0.0203
    156  CD1       16.0940    3.5470   30.2760 C.ar  170  PHE170     -0.0042
    157  CD2       14.8230    1.6040   30.8690 C.ar  170  PHE170     -0.0042
    158  CE1       16.4580    3.7300   31.6330 C.ar  170  PHE170     -0.0003
    159  CE2       15.1670    1.7690   32.2320 C.ar  170  PHE170     -0.0003
    160  CZ        15.9930    2.8420   32.6070 C.ar  170  PHE170     -0.0000
@<TRIPOS>BOND
     1    16    15    2
     2    15    14    1
     3    13    14    1
     4     1     2    1
     5    14    17    1
     6    17    18    1
     7    19    18   ar
     8    19    21   ar
     9     2     3    1
    10     2     5    1
    11    18    20   ar
    12     7     9   ar
    13     7     6   ar
    14    21    23   ar
    15     3     4    2
    16     9    11   ar
    17     5     6    1
    18     6     8   ar
    19    11    12    1
    20    11    10   ar
    21    20    22   ar
    22    23    22   ar
    23     8    10   ar
    24   105   104    2
    25   101   100    2
    26    27    26    2
    27    26    25    1
    28   104   103    1
    29   100    99    1
    30    99    98    1
    31    25    24    1
    32    25    28    1
    33   103   102    1
    34   103   106    1
    35    31    33   ar
    36    31    29   ar
    37   106   107    1
    38    98    95   am
    39    33    32   ar
    40    28    29    1
    41    29    30   ar
    42    96    95    2
    43   108   109    1
    44   111   110    2
    45    37    36    2
    46    95    94    1
    47    32    30   ar
    48    36    35    1
    49   112   109    1
    50   112   113    1
    51   110   109    1
    52   110   118   am
    53   123   122    1
    54    94    97    1
    55    94    93    1
    56    42    40   ar
    57    85    84    2
    58    35    34    1
    59    35    38    1
    60   113   115   ar
    61   113   114   ar
    62   115   117   ar
    63   118   119    1
    64   119   122    1
    65   119   120    1
    66    39    40    1
    67    39    38    1
    68    93    84   am
    69    40    41   ar
    70   122   124    1
    71    84    83    1
    72    86    87    1
    73    86    83    1
    74   114   116   ar
    75   117   116   ar
    76    87    88    1
    77    83    82    1
    78   120   121    2
    79   120   125   am
    80    82    77   am
    81   125   126    1
    82    81    79    1
    83    88    89    1
    84   153   152    2
    85    79    76    1
    86    79    80    1
    87    77    76    1
    88    77    78    2
    89    89    90    2
    90    76    75    1
    91   126   127    1
    92   152   151    1
    93   128   127    2
    94    66    64    1
    95   127   129   am
    96    90    92    1
    97    90    91    1
    98   151   150    1
    99   151   154    1
   100   129   130    1
   101    64    65    1
   102    64    63    1
   103   154   155    1
   104   130   131    1
   105    62    61    2
   106    63    60    1
   107   132   131    2
   108   131   133   am
   109    70    69    2
   110    68    67    1
   111    68    69    1
   112    61    67   am
   113    61    60    1
   114   155   156   ar
   115   155   157   ar
   116   144   143    2
   117    69    71   am
   118   156   158   ar
   119    60    59    1
   120   139   138    2
   121   133   134    1
   122   143   142    1
   123   140   138   am
   124   157   159   ar
   125   138   137    1
   126    50    48    1
   127   134   137    1
   128   134   135    1
   129    59    53   am
   130    71    72    1
   131    73    74    2
   132    73    72    1
   133   158   160   ar
   134   142   141    1
   135   142   145    1
   136    46    45    2
   137    48    47    1
   138    48    49    1
   139   159   160   ar
   140   135   136    2
   141    47    44    1
   142    53    54    2
   143    53    52    1
   144   145   146    1
   145    45    44    1
   146    45    51   am
   147    43    44    1
   148    57    56    2
   149    52    51    1
   150    52    55    1
   151   146   147    1
   152    56    55    1
   153    56    58   am
   154   147   148    2
   155   147   149   am
