@<TRIPOS>MOLECULE
tmp/2zu4A00.pdb
 206 205 0 0 0
SMALL
GASTEIGER

@<TRIPOS>ATOM
      1  N         21.2450  -11.8900   27.0850 N.3    25  THR25      -0.1203
      2  CA        20.1150  -11.1370   26.5040 C.3    25  THR25       0.1994
      3  C         18.8270  -11.9530   26.4010 C.2    25  THR25       0.2619
      4  O         18.7950  -13.0320   25.7900 O.2    25  THR25      -0.2717
      5  CB        20.5020  -10.5910   25.0920 C.3    25  THR25       0.1784
      6  OG1       21.6850   -9.7850   25.2100 O.3    25  THR25      -0.2211
      7  CG2       19.3830   -9.6930   24.5020 C.3    25  THR25       0.0376
      8  N         17.7610  -11.4540   27.0280 N.am   26  THR26      -0.1938
      9  CA        16.4790  -12.1340   26.9430 C.3    26  THR26       0.2028
     10  C         15.4100  -11.1640   26.3860 C.2    26  THR26       0.2642
     11  O         15.4220   -9.9910   26.7020 O.2    26  THR26      -0.2714
     12  CB        16.0250  -12.6700   28.3330 C.3    26  THR26       0.1808
     13  OG1       16.8990  -13.7670   28.7180 O.3    26  THR26      -0.2208
     14  CG2       14.6050  -13.2250   28.2680 C.3    26  THR26       0.0379
     15  N         14.5210  -11.6840   25.5490 N.am   27  LEU27      -0.1977
     16  CA        13.4240  -10.8900   24.9890 C.3    27  LEU27       0.1596
     17  C         12.2900  -11.8270   24.6200 C.2    27  LEU27       0.2287
     18  O         12.3770  -13.0270   24.9400 O.2    27  LEU27      -0.2864
     19  CB        13.9120  -10.0650   23.8110 C.3    27  LEU27       0.0297
     20  CG        14.8090  -10.5970   22.7320 C.3    27  LEU27       0.0022
     21  CD1       14.1220  -11.7750   21.9640 C.3    27  LEU27       0.0001
     22  CD2       15.0660   -9.4470   21.8090 C.3    27  LEU27       0.0001
     23  N         18.4540   -8.9260   17.0510 N.3    41  HIS41      -0.1241
     24  CA        19.4030   -8.3850   18.0280 C.3    41  HIS41       0.1621
     25  C         19.4800   -9.1280   19.3650 C.2    41  HIS41       0.2264
     26  O         20.2020   -8.7070   20.2570 O.2    41  HIS41      -0.2867
     27  CB        19.2090   -6.8930   18.2930 C.3    41  HIS41       0.0745
     28  CG        18.0180   -6.5470   19.1310 C.ar   41  HIS41       0.0817
     29  ND1       17.0050   -5.7410   18.6550 N.ar   41  HIS41      -0.2268
     30  CD2       17.7380   -6.7750   20.4390 C.ar   41  HIS41       0.1154
     31  CE1       16.1500   -5.4870   19.6350 C.ar   41  HIS41       0.1986
     32  NE2       16.5680   -6.1030   20.7290 N.ar   41  HIS41      -0.2212
     33  N         26.0130   -4.0030   20.2190 N.3    49  MET49      -0.1245
     34  CA        24.9280   -3.1140   19.8300 C.3    49  MET49       0.1570
     35  C         25.1630   -1.8270   19.0580 C.2    49  MET49       0.2261
     36  O         24.2200   -1.3030   18.4760 O.2    49  MET49      -0.2867
     37  CB        24.0490   -2.8400   21.0590 C.3    49  MET49       0.0387
     38  CG        23.2320   -4.0820   21.4390 C.3    49  MET49       0.0595
     39  SD        22.0800   -3.9660   22.8300 S.3    49  MET49      -0.1393
     40  CE        21.4440   -5.7250   22.8350 C.3    49  MET49       0.0692
     41  N         25.2980   -8.6640   11.9200 N.3    54  TYR54      -0.1241
     42  CA        24.4940   -9.8240   12.2440 C.3    54  TYR54       0.1605
     43  C         24.8390  -11.1260   11.5380 C.2    54  TYR54       0.2264
     44  O         24.6940  -12.2050   12.1210 O.2    54  TYR54      -0.2867
     45  CB        23.0040   -9.4910   12.0520 C.3    54  TYR54       0.0534
     46  CG        22.5150   -8.5140   13.0860 C.ar   54  TYR54      -0.0201
     47  CD1       22.4640   -7.1420   12.8180 C.ar   54  TYR54      -0.0009
     48  CD2       22.2000   -8.9530   14.3750 C.ar   54  TYR54      -0.0009
     49  CE1       22.1030   -6.2410   13.8210 C.ar   54  TYR54       0.0417
     50  CE2       21.8620   -8.0730   15.3610 C.ar   54  TYR54       0.0417
     51  CZ        21.8090   -6.7220   15.0830 C.ar   54  TYR54       0.1957
     52  OH        21.4460   -5.8620   16.0960 O.3    54  TYR54      -0.2866
     53  N          6.8400    1.1010   26.3400 N.3   140  PHE140     -0.1227
     54  CA         7.8310   -0.0130   26.3050 C.3   140  PHE140      0.1736
     55  C          9.0540    0.2140   27.1660 C.2   140  PHE140      0.2595
     56  O          9.6150    1.3060   27.1250 O.2   140  PHE140     -0.2718
     57  CB         8.3730   -0.1690   24.8690 C.3   140  PHE140      0.0547
     58  CG         7.3650   -0.6640   23.8750 C.ar  140  PHE140     -0.0202
     59  CD1        6.8310    0.2030   22.8750 C.ar  140  PHE140     -0.0042
     60  CD2        6.9910   -1.9860   23.8630 C.ar  140  PHE140     -0.0042
     61  CE1        5.9680   -0.2950   21.9100 C.ar  140  PHE140     -0.0003
     62  CE2        6.1120   -2.4800   22.8630 C.ar  140  PHE140     -0.0003
     63  CZ         5.6120   -1.6020   21.8900 C.ar  140  PHE140     -0.0000
     64  N          9.4990   -0.8060   27.9060 N.am  141  LEU141     -0.1966
     65  CA        10.7160   -0.6830   28.7350 C.3   141  LEU141      0.1728
     66  C         11.7440   -1.7620   28.2910 C.2   141  LEU141      0.2616
     67  O         11.4270   -2.5780   27.3810 O.2   141  LEU141     -0.2715
     68  CB        10.3400   -0.8350   30.2290 C.3   141  LEU141      0.0311
     69  CG         9.2400    0.1330   30.7390 C.3   141  LEU141      0.0022
     70  CD1        8.6590   -0.3840   32.0560 C.3   141  LEU141      0.0001
     71  CD2        9.7920    1.5250   30.9280 C.3   141  LEU141      0.0001
     72  N         12.9570   -1.8310   28.9040 N.am  142  ASN142     -0.1958
     73  CA        13.8620   -2.8710   28.3940 C.3   142  ASN142      0.1819
     74  C         13.2230   -4.2140   28.7240 C.2   142  ASN142      0.2622
     75  O         12.4760   -4.3640   29.6970 O.2   142  ASN142     -0.2715
     76  CB        15.3380   -2.7410   28.8420 C.3   142  ASN142      0.1195
     77  CG        16.3530   -3.3690   27.7540 C.2   142  ASN142      0.2630
     78  OD1       17.4350   -2.8020   27.4660 O.2   142  ASN142     -0.2716
     79  ND2       15.9690   -4.5050   27.1570 N.am  142  ASN142     -0.0877
     80  N         13.4210   -5.1650   27.8340 N.am  143  GLY143     -0.1940
     81  CA        12.7730   -6.4590   27.9870 C.3   143  GLY143      0.2014
     82  C         11.5750   -6.5710   27.0710 C.2   143  GLY143      0.2640
     83  O         11.0850   -7.6540   26.7980 O.2   143  GLY143     -0.2714
     84  N         11.0750   -5.4420   26.5780 N.am  144  SER144     -0.1935
     85  CA         9.8950   -5.5280   25.7410 C.3   144  SER144      0.2055
     86  C         10.1150   -5.9260   24.2490 C.2   144  SER144      0.2643
     87  O          9.1340   -6.2050   23.5390 O.2   144  SER144     -0.2714
     88  CB         9.1020   -4.1920   25.8430 C.3   144  SER144      0.2130
     89  OG         9.8680   -3.0880   25.3500 O.3   144  SER144     -0.2179
     90  N         11.3560   -6.0330   23.7550 N.am  145  CYS145     -0.1967
     91  CA        11.4800   -6.3790   22.3310 C.3   145  CYS145      0.1712
     92  C         10.8450   -7.7120   21.9590 C.2   145  CYS145      0.2296
     93  O         10.6860   -8.5680   22.7820 O.2   145  CYS145     -0.2864
     94  CB        12.8790   -6.2110   21.8560 C.3   145  CYS145      0.0983
     95  SG        13.4390   -4.5000   21.9640 S.3   145  CYS145     -0.0798
     96  N          8.2460   -5.1780   18.1140 N.3   163  HIS163     -0.1226
     97  CA         8.9980   -4.0690   18.6850 C.3   163  HIS163      0.1752
     98  C         10.4780   -4.3190   18.7280 C.2   163  HIS163      0.2596
     99  O         10.9070   -5.4200   19.1350 O.2   163  HIS163     -0.2718
    100  CB         8.4340   -3.8230   20.1060 C.3   163  HIS163      0.0759
    101  CG         9.0500   -2.6280   20.7580 C.ar  163  HIS163      0.0818
    102  ND1        9.1540   -1.4220   20.1110 N.ar  163  HIS163     -0.2268
    103  CD2        9.6890   -2.4790   21.9420 C.ar  163  HIS163      0.1154
    104  CE1        9.8510   -0.5800   20.8530 C.ar  163  HIS163      0.1986
    105  NE2       10.1970   -1.2010   21.9720 N.ar  163  HIS163     -0.2212
    106  N         11.2840   -3.2900   18.4240 N.am  164  HIS164     -0.1961
    107  CA        12.7350   -3.4120   18.4110 C.3   164  HIS164      0.1787
    108  C         13.4520   -2.2730   19.1650 C.2   164  HIS164      0.2620
    109  O         14.4970   -2.5430   19.7320 O.2   164  HIS164     -0.2715
    110  CB        13.3400   -3.3580   16.9760 C.3   164  HIS164      0.0785
    111  CG        13.1560   -4.6030   16.1850 C.ar  164  HIS164      0.0821
    112  ND1       14.2210   -5.3690   15.7310 N.ar  164  HIS164     -0.2267
    113  CD2       12.0290   -5.2220   15.7480 C.ar  164  HIS164      0.1154
    114  CE1       13.7540   -6.4090   15.0560 C.ar  164  HIS164      0.1986
    115  NE2       12.4310   -6.3470   15.0510 N.ar  164  HIS164     -0.2212
    116  N         12.9050   -1.0410   19.1760 N.am  165  MET165     -0.1963
    117  CA        13.6560    0.0600   19.7670 C.3   165  MET165      0.1736
    118  C         12.9470    1.3640   20.1190 C.2   165  MET165      0.2616
    119  O         11.7940    1.6100   19.7090 O.2   165  MET165     -0.2715
    120  CB        14.8460    0.3960   18.8630 C.3   165  MET165      0.0427
    121  CG        14.4550    1.0050   17.5580 C.3   165  MET165      0.0599
    122  SD        15.6390    0.7990   16.1900 S.3   165  MET165     -0.1393
    123  CE        16.7530    2.1650   16.5290 C.3   165  MET165      0.0692
    124  N         13.6430    2.2100   20.8800 N.am  166  GLU166     -0.1963
    125  CA        13.0710    3.4700   21.2580 C.3   166  GLU166      0.1733
    126  C         13.9820    4.5870   20.7930 C.2   166  GLU166      0.2616
    127  O         15.1870    4.5130   21.0110 O.2   166  GLU166     -0.2715
    128  CB        12.9120    3.5560   22.7780 C.3   166  GLU166      0.0429
    129  CG        12.3640    4.8800   23.2200 C.3   166  GLU166      0.1163
    130  CD        11.9360    4.9050   24.7180 C.2   166  GLU166      0.3649
    131  OE1       12.4000    5.8390   25.3980 O.co2 166  GLU166     -0.2457
    132  OE2       11.1360    4.0530   25.2000 O.co2 166  GLU166     -0.2457
    133  N         13.4120    5.6200   20.1660 N.am  167  LEU167     -0.1964
    134  CA        14.2260    6.7130   19.7010 C.3   167  LEU167      0.1713
    135  C         14.2300    7.7680   20.7710 C.2   167  LEU167      0.2458
    136  O         13.4030    7.7660   21.7040 O.2   167  LEU167     -0.2730
    137  CB        13.7120    7.2680   18.3750 C.3   167  LEU167      0.0310
    138  CG        13.6410    6.1900   17.3070 C.3   167  LEU167      0.0022
    139  CD1       12.8710    6.7260   16.0730 C.3   167  LEU167      0.0001
    140  CD2       15.0890    5.6990   16.9740 C.3   167  LEU167      0.0001
    141  N         15.1470    8.7250   20.6410 N.am  168  PRO168     -0.2727
    142  CA        15.2980    9.8000   21.6080 C.3   168  PRO168      0.1402
    143  C         14.0620   10.5200   22.1000 C.2   168  PRO168      0.2269
    144  O         13.9620   10.8520   23.2930 O.2   168  PRO168     -0.2865
    145  CB        16.2950   10.7490   20.9300 C.3   168  PRO168      0.0296
    146  CG        17.0720    9.8730   20.0270 C.3   168  PRO168      0.0237
    147  CD        15.9750    8.9690   19.4510 C.3   168  PRO168      0.0939
    148  N          8.5650    4.9210   19.4520 N.3   172  HIS172     -0.1241
    149  CA         9.0090    3.5680   19.2170 C.3   172  HIS172      0.1621
    150  C          9.0450    3.1200   17.7830 C.2   172  HIS172      0.2264
    151  O          8.2810    3.6410   16.9770 O.2   172  HIS172     -0.2867
    152  CB         8.0990    2.7310   20.0180 C.3   172  HIS172      0.0745
    153  CG         8.1970    3.0650   21.4710 C.ar  172  HIS172      0.0817
    154  ND1        7.2850    3.8840   22.1210 N.ar  172  HIS172     -0.2268
    155  CD2        9.1140    2.6980   22.3980 C.ar  172  HIS172      0.1154
    156  CE1        7.6330    3.9880   23.3990 C.ar  172  HIS172      0.1986
    157  NE2        8.7400    3.2780   23.5930 N.ar  172  HIS172     -0.2212
    158  N         18.4800   -1.5620   13.1930 N.3   187  ASP187     -0.1225
    159  CA        18.6460   -2.1190   14.5190 C.3   187  ASP187      0.1805
    160  C         20.0530   -2.1090   15.0520 C.2   187  ASP187      0.2598
    161  O         20.6930   -3.1550   15.2260 O.2   187  ASP187     -0.2718
    162  CB        18.0360   -3.5150   14.6090 C.3   187  ASP187      0.1424
    163  CG        18.5190   -4.4420   13.5410 C.2   187  ASP187      0.3668
    164  OD1       19.1540   -3.9450   12.5710 O.co2 187  ASP187     -0.2456
    165  OD2       18.2300   -5.6670   13.6500 O.co2 187  ASP187     -0.2456
    166  N         20.5320   -0.9050   15.2960 N.am  188  ARG188     -0.1966
    167  CA        21.8530   -0.6960   15.8810 C.3   188  ARG188      0.1729
    168  C         21.7950    0.6030   16.6150 C.2   188  ARG188      0.2616
    169  O         21.0370    1.4930   16.2590 O.2   188  ARG188     -0.2715
    170  CB        22.9960   -0.7140   14.8440 C.3   188  ARG188      0.0348
    171  CG        22.9210    0.2030   13.6190 C.3   188  ARG188      0.0492
    172  CD        23.7960   -0.4000   12.4400 C.3   188  ARG188      0.2205
    173  NE        23.4060    0.1290   11.1230 N.pl3 188  ARG188     -0.0865
    174  CZ        23.8560    1.2700   10.5790 C.cat 188  ARG188      0.5346
    175  NH1       23.4080    1.6660    9.3780 N.pl3 188  ARG188      0.1354
    176  NH2       24.7860    2.0060   11.1970 N.pl3 188  ARG188      0.1354
    177  N         22.5850    0.7080   17.6690 N.am  189  GLN189     -0.1963
    178  CA        22.5580    1.9010   18.4810 C.3   189  GLN189      0.1733
    179  C         23.3810    3.0920   18.0480 C.2   189  GLN189      0.2617
    180  O         24.0570    3.7200   18.8270 O.2   189  GLN189     -0.2715
    181  CB        22.8460    1.5230   19.9270 C.3   189  GLN189      0.0408
    182  CG        21.8860    0.4280   20.3640 C.3   189  GLN189      0.0908
    183  CD        21.7250    0.3480   21.8820 C.2   189  GLN189      0.2608
    184  OE1       20.6570   -0.0350   22.3850 O.2   189  GLN189     -0.2717
    185  NE2       22.7900    0.6950   22.6180 N.am  189  GLN189     -0.0878
    186  N         23.2750    3.4250   16.7850 N.am  190  THR190     -0.1937
    187  CA        23.9610    4.5950   16.2700 C.3   190  THR190      0.2028
    188  C         22.8710    5.6910   16.2780 C.2   190  THR190      0.2642
    189  O         21.6810    5.3860   16.2270 O.2   190  THR190     -0.2714
    190  CB        24.4750    4.3090   14.8600 C.3   190  THR190      0.1808
    191  OG1       24.9570    5.5240   14.2940 O.3   190  THR190     -0.2208
    192  CG2       23.3660    3.6890   13.9820 C.3   190  THR190      0.0379
    193  N         23.2570    6.9470   16.3890 N.am  191  ALA191     -0.1963
    194  CA        22.2630    8.0050   16.4270 C.3   191  ALA191      0.1728
    195  C         21.2670    7.9600   15.2540 C.2   191  ALA191      0.2616
    196  O         21.6460    7.8550   14.0920 O.2   191  ALA191     -0.2715
    197  CB        22.9540    9.3480   16.4510 C.3   191  ALA191      0.0334
    198  N         19.9810    8.0270   15.5890 N.am  192  GLN192     -0.1977
    199  CA        18.9040    8.0560   14.5900 C.3   192  GLN192      0.1601
    200  C         17.8370    8.8810   15.2420 C.2   192  GLN192      0.2287
    201  O         17.6890    8.8650   16.4770 O.2   192  GLN192     -0.2864
    202  CB        18.3610    6.6720   14.3110 C.3   192  GLN192      0.0394
    203  CG        19.4150    5.6300   13.9900 C.3   192  GLN192      0.0908
    204  CD        18.7720    4.2660   13.8370 C.2   192  GLN192      0.2608
    205  OE1       17.9450    4.0770   12.9790 O.2   192  GLN192     -0.2717
    206  NE2       19.1490    3.3190   14.6810 N.am  192  GLN192     -0.0878
@<TRIPOS>BOND
     1   175   174    1
     2   174   173    2
     3   174   176    1
     4   173   172    1
     5    43    44    2
     6    43    42    1
     7    41    42    1
     8    45    42    1
     9    45    46    1
    10   172   171    1
    11   164   163   ar
    12    47    46   ar
    13    47    49   ar
    14   205   204    2
    15    46    48   ar
    16   158   159    1
    17   163   165   ar
    18   163   162    1
    19   171   170    1
    20    49    51   ar
    21   204   203    1
    22   204   206   am
    23   192   190    1
    24   203   202    1
    25   196   195    2
    26   191   190    1
    27   202   199    1
    28    48    50   ar
    29   159   162    1
    30   159   160    1
    31   199   200    1
    32   199   198    1
    33   170   167    1
    34   190   187    1
    35   115   114   ar
    36   115   113   ar
    37   160   161    2
    38   160   166   am
    39   114   112   ar
    40    51    50   ar
    41    51    52    1
    42   200   201    2
    43   195   198   am
    44   195   194    1
    45   166   167    1
    46   112   111   ar
    47   113   111   ar
    48   167   168    1
    49   139   138    1
    50   111   110    1
    51   122   123    1
    52   122   121    1
    53   189   188    2
    54   169   168    2
    55   187   188    1
    56   187   186    1
    57   188   193   am
    58   193   194    1
    59   194   197    1
    60   168   177   am
    61   186   179   am
    62   140   138    1
    63   110   107    1
    64   151   150    2
    65    23    24    1
    66   138   137    1
    67   121   120    1
    68   177   178    1
    69   150   149    1
    70    24    27    1
    71    24    25    1
    72   179   178    1
    73   179   180    2
    74    96    97    1
    75    27    28    1
    76   137   134    1
    77   107   106    1
    78   107   108    1
    79   106    98   am
    80    36    35    2
    81   178   181    1
    82    29    28   ar
    83    29    31   ar
    84    97    98    1
    85    97   100    1
    86    98    99    2
    87   120   117    1
    88    35    34    1
    89    28    30   ar
    90   108   116   am
    91   108   109    2
    92   116   117    1
    93   149   148    1
    94   149   152    1
    95    25    26    2
    96   147   146    1
    97   147   141    1
    98    31    32   ar
    99   134   133    1
   100   134   135    1
   101   119   118    2
   102   117   118    1
   103    34    33    1
   104    34    37    1
   105   181   182    1
   106   152   153    1
   107   146   145    1
   108   100   101    1
   109   102   101   ar
   110   102   104   ar
   111   118   124   am
   112   133   126   am
   113   182   183    1
   114    30    32   ar
   115   141   135   am
   116   141   142    1
   117   101   103   ar
   118   135   136    2
   119   126   127    2
   120   126   125    1
   121   104   105   ar
   122   124   125    1
   123   145   142    1
   124    37    38    1
   125   125   128    1
   126    38    39    1
   127   153   154   ar
   128   153   155   ar
   129   142   143    1
   130    22    20    1
   131    94    95    1
   132    94    91    1
   133   183   184    2
   134   183   185   am
   135    63    61   ar
   136    63    62   ar
   137    61    59   ar
   138   103   105   ar
   139    92    91    1
   140    92    93    2
   141    21    20    1
   142   143   144    2
   143   154   156   ar
   144    91    90    1
   145   155   157   ar
   146    20    19    1
   147   128   129    1
   148    39    40    1
   149    62    60   ar
   150    59    58   ar
   151   129   130    1
   152   156   157   ar
   153    87    86    2
   154    90    86   am
   155    19    16    1
   156    60    58   ar
   157    58    57    1
   158    86    85    1
   159     7     5    1
   160    17    18    2
   161    17    16    1
   162   130   132   ar
   163   130   131   ar
   164    57    54    1
   165    16    15    1
   166     5     6    1
   167     5     2    1
   168    89    88    1
   169    15    10   am
   170    85    88    1
   171    85    84    1
   172     4     3    2
   173    54    53    1
   174    54    55    1
   175    10    11    2
   176    10     9    1
   177     3     2    1
   178     3     8   am
   179     2     1    1
   180    84    82   am
   181    83    82    2
   182     9     8    1
   183     9    12    1
   184    82    81    1
   185    56    55    2
   186    79    77   am
   187    55    64   am
   188    67    66    2
   189    78    77    2
   190    77    76    1
   191    80    81    1
   192    80    74   am
   193    64    65    1
   194    14    12    1
   195    66    65    1
   196    66    72   am
   197    12    13    1
   198    73    74    1
   199    73    76    1
   200    73    72    1
   201    74    75    2
   202    65    68    1
   203    68    69    1
   204    69    71    1
   205    69    70    1
