@<TRIPOS>MOLECULE
tmp/2zu5A00.pdb
 206 205 0 0 0
SMALL
GASTEIGER

@<TRIPOS>ATOM
      1  N         21.4190  -12.4170   26.7430 N.3    25  THR25      -0.1203
      2  CA        20.4350  -11.4650   26.1940 C.3    25  THR25       0.1994
      3  C         19.1000  -12.1920   26.0870 C.2    25  THR25       0.2619
      4  O         19.0100  -13.2730   25.5050 O.2    25  THR25      -0.2717
      5  CB        20.9100  -11.0010   24.7920 C.3    25  THR25       0.1784
      6  OG1       22.1820  -10.3370   24.9250 O.3    25  THR25      -0.2211
      7  CG2       19.8740  -10.0050   24.1480 C.3    25  THR25       0.0376
      8  N         18.0320  -11.5930   26.6200 N.am   26  THR26      -0.1938
      9  CA        16.7280  -12.2600   26.5820 C.3    26  THR26       0.2028
     10  C         15.6520  -11.2770   26.1090 C.2    26  THR26       0.2642
     11  O         15.6740  -10.1330   26.4990 O.2    26  THR26      -0.2714
     12  CB        16.3380  -12.7340   28.0000 C.3    26  THR26       0.1808
     13  OG1       17.2400  -13.7830   28.4120 O.3    26  THR26      -0.2208
     14  CG2       14.9650  -13.3380   28.0180 C.3    26  THR26       0.0379
     15  N         14.7390  -11.7590   25.2810 N.am   27  LEU27      -0.1977
     16  CA        13.6060  -10.9190   24.8150 C.3    27  LEU27       0.1596
     17  C         12.4480  -11.8460   24.5060 C.2    27  LEU27       0.2287
     18  O         12.4880  -13.0240   24.8470 O.2    27  LEU27      -0.2864
     19  CB        14.0360  -10.0370   23.6320 C.3    27  LEU27       0.0297
     20  CG        14.9170  -10.6110   22.5250 C.3    27  LEU27       0.0022
     21  CD1       14.2380  -11.7570   21.8200 C.3    27  LEU27       0.0001
     22  CD2       15.0950   -9.5380   21.4810 C.3    27  LEU27       0.0001
     23  N         18.4880   -8.8720   17.1230 N.3    41  HIS41      -0.1241
     24  CA        19.4860   -8.3910   18.0640 C.3    41  HIS41       0.1621
     25  C         19.5810   -9.2250   19.3490 C.2    41  HIS41       0.2264
     26  O         20.3880   -8.9240   20.2020 O.2    41  HIS41      -0.2867
     27  CB        19.3380   -6.8840   18.3740 C.3    41  HIS41       0.0745
     28  CG        18.1380   -6.5310   19.2040 C.ar   41  HIS41       0.0817
     29  ND1       17.0060   -5.9630   18.6570 N.ar   41  HIS41      -0.2268
     30  CD2       17.9140   -6.6070   20.5350 C.ar   41  HIS41       0.1154
     31  CE1       16.1350   -5.7000   19.6180 C.ar   41  HIS41       0.1986
     32  NE2       16.6580   -6.0820   20.7660 N.ar   41  HIS41      -0.2212
     33  N         25.8600   -4.1110   20.2370 N.3    49  MET49      -0.1245
     34  CA        24.7740   -3.2600   19.7570 C.3    49  MET49       0.1570
     35  C         25.0660   -1.9570   19.0280 C.2    49  MET49       0.2261
     36  O         24.1830   -1.4340   18.3310 O.2    49  MET49      -0.2867
     37  CB        23.8010   -3.0210   20.9010 C.3    49  MET49       0.0387
     38  CG        23.1380   -4.3120   21.3540 C.3    49  MET49       0.0595
     39  SD        21.9810   -4.0300   22.7480 S.3    49  MET49      -0.1393
     40  CE        21.3570   -5.6330   22.9570 C.3    49  MET49       0.0692
     41  N         25.3240   -8.4770   11.6610 N.3    54  TYR54      -0.1241
     42  CA        24.5230   -9.6460   12.0470 C.3    54  TYR54       0.1605
     43  C         24.8660  -10.9620   11.3660 C.2    54  TYR54       0.2264
     44  O         24.7520  -12.0240   11.9780 O.2    54  TYR54      -0.2867
     45  CB        23.0270   -9.3410   11.8660 C.3    54  TYR54       0.0534
     46  CG        22.5430   -8.3280   12.8870 C.ar   54  TYR54      -0.0201
     47  CD1       22.4230   -6.9680   12.5600 C.ar   54  TYR54      -0.0009
     48  CD2       22.2080   -8.7230   14.1680 C.ar   54  TYR54      -0.0009
     49  CE1       21.9490   -6.0180   13.5230 C.ar   54  TYR54       0.0417
     50  CE2       21.7460   -7.8030   15.1330 C.ar   54  TYR54       0.0417
     51  CZ        21.6160   -6.4540   14.7890 C.ar   54  TYR54       0.1957
     52  OH        21.1440   -5.5740   15.7600 O.3    54  TYR54      -0.2866
     53  N          6.8990    1.1510   26.3490 N.3   140  PHE140     -0.1227
     54  CA         7.8030   -0.0240   26.3660 C.3   140  PHE140      0.1736
     55  C          9.0230    0.2450   27.2430 C.2   140  PHE140      0.2595
     56  O          9.6220    1.3150   27.1680 O.2   140  PHE140     -0.2718
     57  CB         8.3390   -0.2380   24.9440 C.3   140  PHE140      0.0547
     58  CG         7.3050   -0.7250   23.9720 C.ar  140  PHE140     -0.0202
     59  CD1        6.9190    0.0690   22.9030 C.ar  140  PHE140     -0.0042
     60  CD2        6.7890   -2.0060   24.0860 C.ar  140  PHE140     -0.0042
     61  CE1        6.0310   -0.4220   21.9330 C.ar  140  PHE140     -0.0003
     62  CE2        5.9040   -2.4920   23.1100 C.ar  140  PHE140     -0.0003
     63  CZ         5.5530   -1.6840   22.0450 C.ar  140  PHE140     -0.0000
     64  N          9.4230   -0.7700   27.9950 N.am  141  LEU141     -0.1966
     65  CA        10.6360   -0.7050   28.8470 C.3   141  LEU141      0.1728
     66  C         11.6740   -1.7580   28.3770 C.2   141  LEU141      0.2616
     67  O         11.4430   -2.5630   27.4590 O.2   141  LEU141     -0.2715
     68  CB        10.2660   -1.0270   30.3040 C.3   141  LEU141      0.0311
     69  CG         9.1800   -0.1220   30.9350 C.3   141  LEU141      0.0022
     70  CD1        8.8200   -0.6000   32.3120 C.3   141  LEU141      0.0001
     71  CD2        9.7290    1.3470   30.9940 C.3   141  LEU141      0.0001
     72  N         12.8420   -1.7680   29.0240 N.am  142  ASN142     -0.1958
     73  CA        13.8530   -2.7890   28.7250 C.3   142  ASN142      0.1819
     74  C         13.1650   -4.1610   28.8080 C.2   142  ASN142      0.2622
     75  O         12.3570   -4.3950   29.7100 O.2   142  ASN142     -0.2715
     76  CB        14.9400   -2.7410   29.7980 C.3   142  ASN142      0.1195
     77  CG        15.8290   -1.5450   29.6760 C.2   142  ASN142      0.2630
     78  OD1       16.6060   -1.2450   30.6000 O.2   142  ASN142     -0.2716
     79  ND2       15.7620   -0.8560   28.5570 N.am  142  ASN142     -0.0877
     80  N         13.4810   -5.0570   27.8850 N.am  143  GLY143     -0.1940
     81  CA        12.9070   -6.4040   27.8840 C.3   143  GLY143      0.2014
     82  C         11.6490   -6.5710   27.0260 C.2   143  GLY143      0.2640
     83  O         11.1300   -7.6750   26.9090 O.2   143  GLY143     -0.2714
     84  N         11.1460   -5.4610   26.4770 N.am  144  SER144     -0.1935
     85  CA         9.8920   -5.5300   25.7170 C.3   144  SER144      0.2055
     86  C         10.0650   -5.8940   24.2440 C.2   144  SER144      0.2643
     87  O          9.0680   -6.1200   23.5470 O.2   144  SER144     -0.2714
     88  CB         9.1940   -4.1620   25.8000 C.3   144  SER144      0.2130
     89  OG        10.0130   -3.2060   25.1630 O.3   144  SER144     -0.2179
     90  N         11.3040   -6.0260   23.7550 N.am  145  CYS145     -0.1967
     91  CA        11.4130   -6.3520   22.3370 C.3   145  CYS145      0.1712
     92  C         10.8480   -7.6910   21.9750 C.2   145  CYS145      0.2296
     93  O         10.8850   -8.6310   22.7720 O.2   145  CYS145     -0.2864
     94  CB        12.8210   -6.2070   21.8340 C.3   145  CYS145      0.0983
     95  SG        13.3900   -4.4770   21.8590 S.3   145  CYS145     -0.0798
     96  N          8.2360   -5.3690   18.0430 N.3   163  HIS163     -0.1226
     97  CA         8.9690   -4.2390   18.6100 C.3   163  HIS163      0.1752
     98  C         10.4890   -4.3900   18.7070 C.2   163  HIS163      0.2596
     99  O         10.9490   -5.4240   19.1700 O.2   163  HIS163     -0.2718
    100  CB         8.4090   -3.9590   20.0060 C.3   163  HIS163      0.0759
    101  CG         8.9870   -2.6980   20.6010 C.ar  163  HIS163      0.0818
    102  ND1        8.9890   -1.5110   19.9060 N.ar  163  HIS163     -0.2268
    103  CD2        9.6710   -2.4660   21.7450 C.ar  163  HIS163      0.1154
    104  CE1        9.6680   -0.5990   20.5820 C.ar  163  HIS163      0.1986
    105  NE2       10.0970   -1.1520   21.7030 N.ar  163  HIS163     -0.2212
    106  N         11.2560   -3.3610   18.2890 N.am  164  HIS164     -0.1961
    107  CA        12.7300   -3.4230   18.3360 C.3   164  HIS164      0.1787
    108  C         13.4140   -2.2920   19.0660 C.2   164  HIS164      0.2620
    109  O         14.4780   -2.5330   19.6380 O.2   164  HIS164     -0.2715
    110  CB        13.4110   -3.4390   16.9480 C.3   164  HIS164      0.0785
    111  CG        13.0680   -4.6380   16.1160 C.ar  164  HIS164      0.0821
    112  ND1       14.0430   -5.4790   15.5910 N.ar  164  HIS164     -0.2267
    113  CD2       11.8770   -5.0980   15.6600 C.ar  164  HIS164      0.1154
    114  CE1       13.4610   -6.4020   14.8350 C.ar  164  HIS164      0.1986
    115  NE2       12.1430   -6.1850   14.8430 N.ar  164  HIS164     -0.2212
    116  N         12.8690   -1.0700   19.0640 N.am  165  MET165     -0.1963
    117  CA        13.6750   -0.0010   19.6770 C.3   165  MET165      0.1736
    118  C         12.9040    1.2600   20.0260 C.2   165  MET165      0.2616
    119  O         11.7670    1.4420   19.6160 O.2   165  MET165     -0.2715
    120  CB        14.7970    0.3970   18.7000 C.3   165  MET165      0.0427
    121  CG        14.2350    0.9430   17.4020 C.3   165  MET165      0.0599
    122  SD        15.5240    1.1030   16.0690 S.3   165  MET165     -0.1393
    123  CE        16.6240    2.2560   16.8160 C.3   165  MET165      0.0692
    124  N         13.5620    2.1240   20.7990 N.am  166  GLU166     -0.1963
    125  CA        12.9920    3.3910   21.2040 C.3   166  GLU166      0.1733
    126  C         13.9020    4.4760   20.6490 C.2   166  GLU166      0.2616
    127  O         15.0950    4.2770   20.5900 O.2   166  GLU166     -0.2715
    128  CB        12.9940    3.5080   22.7290 C.3   166  GLU166      0.0429
    129  CG        12.2440    4.7650   23.2610 C.3   166  GLU166      0.1163
    130  CD        11.9950    4.6610   24.7960 C.2   166  GLU166      0.3649
    131  OE1       12.7110    5.3800   25.5350 O.co2 166  GLU166     -0.2457
    132  OE2       11.1250    3.9010   25.2740 O.co2 166  GLU166     -0.2457
    133  N         13.3420    5.6180   20.2450 N.am  167  LEU167     -0.1964
    134  CA        14.1510    6.7400   19.7300 C.3   167  LEU167      0.1713
    135  C         14.2160    7.7950   20.8080 C.2   167  LEU167      0.2458
    136  O         13.4230    7.7560   21.7530 O.2   167  LEU167     -0.2730
    137  CB        13.4940    7.3060   18.4590 C.3   167  LEU167      0.0310
    138  CG        13.6180    6.2540   17.3500 C.3   167  LEU167      0.0022
    139  CD1       12.6960    6.6080   16.1700 C.3   167  LEU167      0.0001
    140  CD2       15.0800    6.2000   16.8580 C.3   167  LEU167      0.0001
    141  N         15.1360    8.7750   20.6590 N.am  168  PRO168     -0.2727
    142  CA        15.3120    9.8320   21.6570 C.3   168  PRO168      0.1402
    143  C         14.1000   10.5680   22.1470 C.2   168  PRO168      0.2269
    144  O         14.0490   10.9730   23.3380 O.2   168  PRO168     -0.2865
    145  CB        16.3610   10.7710   21.0050 C.3   168  PRO168      0.0296
    146  CG        17.1710    9.8680   20.1520 C.3   168  PRO168      0.0237
    147  CD        16.0620    8.9630   19.5210 C.3   168  PRO168      0.0939
    148  N          8.5730    4.8990   19.4270 N.3   172  HIS172     -0.1241
    149  CA         9.0420    3.5300   19.1880 C.3   172  HIS172      0.1621
    150  C          9.0650    3.1060   17.7410 C.2   172  HIS172      0.2264
    151  O          8.2720    3.6190   16.9430 O.2   172  HIS172     -0.2867
    152  CB         8.0850    2.6330   20.0040 C.3   172  HIS172      0.0745
    153  CG         8.1700    2.9320   21.4750 C.ar  172  HIS172      0.0817
    154  ND1        7.1700    3.5840   22.1710 N.ar  172  HIS172     -0.2268
    155  CD2        9.2000    2.7630   22.3470 C.ar  172  HIS172      0.1154
    156  CE1        7.5840    3.8140   23.4150 C.ar  172  HIS172      0.1986
    157  NE2        8.8140    3.3240   23.5430 N.ar  172  HIS172     -0.2212
    158  N         18.3550   -1.4340   13.2080 N.3   187  ASP187     -0.1225
    159  CA        18.5100   -2.0350   14.5110 C.3   187  ASP187      0.1805
    160  C         19.9540   -2.0420   14.9610 C.2   187  ASP187      0.2598
    161  O         20.6020   -3.0900   15.0890 O.2   187  ASP187     -0.2718
    162  CB        17.9050   -3.4560   14.5590 C.3   187  ASP187      0.1424
    163  CG        18.4190   -4.3960   13.4590 C.2   187  ASP187      0.3668
    164  OD1       19.0100   -3.9360   12.4410 O.co2 187  ASP187     -0.2456
    165  OD2       18.1770   -5.6130   13.6080 O.co2 187  ASP187     -0.2456
    166  N         20.4060   -0.8380   15.2430 N.am  188  ARG188     -0.1966
    167  CA        21.7710   -0.5670   15.6930 C.3   188  ARG188      0.1729
    168  C         21.6890    0.6680   16.5430 C.2   188  ARG188      0.2616
    169  O         20.8470    1.5350   16.2720 O.2   188  ARG188     -0.2715
    170  CB        22.6600   -0.1810   14.5040 C.3   188  ARG188      0.0348
    171  CG        23.3040   -1.2780   13.8840 C.3   188  ARG188      0.0492
    172  CD        23.9570   -0.8130   12.5670 C.3   188  ARG188      0.2205
    173  NE        24.3480   -2.0360   11.8810 N.pl3 188  ARG188     -0.0865
    174  CZ        23.4600   -2.9210   11.4500 C.cat 188  ARG188      0.5346
    175  NH1       23.8850   -4.0100   10.8430 N.pl3 188  ARG188      0.1354
    176  NH2       22.1290   -2.6940   11.6110 N.pl3 188  ARG188      0.1354
    177  N         22.6160    0.8000   17.4920 N.am  189  GLN189     -0.1963
    178  CA        22.6230    1.9620   18.3680 C.3   189  GLN189      0.1733
    179  C         23.4660    3.1450   17.9230 C.2   189  GLN189      0.2617
    180  O         24.1590    3.7930   18.7110 O.2   189  GLN189     -0.2715
    181  CB        22.9560    1.5360   19.8060 C.3   189  GLN189      0.0408
    182  CG        21.8460    0.5560   20.3120 C.3   189  GLN189      0.0908
    183  CD        21.8010    0.2720   21.8050 C.2   189  GLN189      0.2608
    184  OE1       20.7150    0.0150   22.3440 O.2   189  GLN189     -0.2717
    185  NE2       22.9750    0.2690   22.4810 N.am  189  GLN189     -0.0878
    186  N         23.4070    3.4200   16.6340 N.am  190  THR190     -0.1937
    187  CA        24.0600    4.5730   16.0690 C.3   190  THR190      0.2028
    188  C         22.9440    5.6390   16.1280 C.2   190  THR190      0.2642
    189  O         21.7470    5.2880   16.1580 O.2   190  THR190     -0.2714
    190  CB        24.4920    4.2610   14.6300 C.3   190  THR190      0.1808
    191  OG1       25.1330    5.4150   14.0750 O.3   190  THR190     -0.2208
    192  CG2       23.3220    3.8160   13.7950 C.3   190  THR190      0.0379
    193  N         23.3100    6.9110   16.1990 N.am  191  ALA191     -0.1963
    194  CA        22.3070    7.9500   16.3120 C.3   191  ALA191      0.1728
    195  C         21.2970    7.9840   15.1800 C.2   191  ALA191      0.2616
    196  O         21.6450    8.0130   14.0120 O.2   191  ALA191     -0.2715
    197  CB        22.9830    9.3230   16.4210 C.3   191  ALA191      0.0334
    198  N         20.0370    8.0490   15.5880 N.am  192  GLN192     -0.1977
    199  CA        18.8860    8.1180   14.6850 C.3   192  GLN192      0.1601
    200  C         17.8400    8.9890   15.3230 C.2   192  GLN192      0.2287
    201  O         17.7800    9.1230   16.5610 O.2   192  GLN192     -0.2864
    202  CB        18.3070    6.7250   14.4660 C.3   192  GLN192      0.0394
    203  CG        19.3000    5.7950   13.8310 C.3   192  GLN192      0.0908
    204  CD        18.7570    4.3770   13.7750 C.2   192  GLN192      0.2608
    205  OE1       17.8170    4.1170   13.0630 O.2   192  GLN192     -0.2717
    206  NE2       19.3460    3.4610   14.5600 N.am  192  GLN192     -0.0878
@<TRIPOS>BOND
     1   175   174    1
     2    43    44    2
     3    43    42    1
     4   174   176    1
     5   174   173    2
     6    41    42    1
     7    45    42    1
     8    45    46    1
     9   173   172    1
    10   164   163   ar
    11    47    46   ar
    12    47    49   ar
    13   172   171    1
    14    46    48   ar
    15   205   204    2
    16   158   159    1
    17   163   165   ar
    18   163   162    1
    19    49    51   ar
    20   204   203    1
    21   204   206   am
    22   192   190    1
    23   203   202    1
    24   171   170    1
    25   196   195    2
    26   191   190    1
    27    48    50   ar
    28   202   199    1
    29   170   167    1
    30   159   162    1
    31   159   160    1
    32   190   187    1
    33   199   200    1
    34   199   198    1
    35    51    50   ar
    36    51    52    1
    37   114   115   ar
    38   114   112   ar
    39   115   113   ar
    40   160   161    2
    41   160   166   am
    42   195   198   am
    43   195   194    1
    44   166   167    1
    45   200   201    2
    46   112   111   ar
    47   113   111   ar
    48   167   168    1
    49   187   188    1
    50   187   186    1
    51   122   123    1
    52   122   121    1
    53   111   110    1
    54   188   189    2
    55   188   193   am
    56   139   138    1
    57   193   194    1
    58   169   168    2
    59   194   197    1
    60   168   177   am
    61   186   179   am
    62   140   138    1
    63   151   150    2
    64   110   107    1
    65    23    24    1
    66   138   137    1
    67   121   120    1
    68   177   178    1
    69   150   149    1
    70   179   178    1
    71   179   180    2
    72    96    97    1
    73    24    27    1
    74    24    25    1
    75   106   107    1
    76   106    98   am
    77    36    35    2
    78   107   108    1
    79   178   181    1
    80    27    28    1
    81   137   134    1
    82    97    98    1
    83    97   100    1
    84    29    28   ar
    85    29    31   ar
    86   120   117    1
    87    98    99    2
    88    35    34    1
    89   116   108   am
    90   116   117    1
    91   108   109    2
    92   149   148    1
    93   149   152    1
    94    28    30   ar
    95    25    26    2
    96   147   146    1
    97   147   141    1
    98   119   118    2
    99    31    32   ar
   100   117   118    1
   101   134   133    1
   102   134   135    1
   103    34    33    1
   104    34    37    1
   105   181   182    1
   106   102   104   ar
   107   102   101   ar
   108   152   153    1
   109   100   101    1
   110   118   124   am
   111   146   145    1
   112   133   126   am
   113   182   183    1
   114    30    32   ar
   115   104   105   ar
   116   127   126    2
   117   101   103   ar
   118   126   125    1
   119   141   135   am
   120   141   142    1
   121   124   125    1
   122   135   136    2
   123    37    38    1
   124   145   142    1
   125   125   128    1
   126    38    39    1
   127   153   154   ar
   128   153   155   ar
   129    22    20    1
   130   142   143    1
   131   105   103   ar
   132   183   184    2
   133   183   185   am
   134    21    20    1
   135    94    95    1
   136    94    91    1
   137    61    63   ar
   138    61    59   ar
   139    92    91    1
   140    92    93    2
   141    63    62   ar
   142   143   144    2
   143   154   156   ar
   144    91    90    1
   145   155   157   ar
   146    20    19    1
   147   128   129    1
   148    39    40    1
   149    59    58   ar
   150    62    60   ar
   151   129   130    1
   152   156   157   ar
   153    87    86    2
   154    19    16    1
   155    90    86   am
   156    58    60   ar
   157    58    57    1
   158     7     5    1
   159    86    85    1
   160    17    16    1
   161    17    18    2
   162     5     6    1
   163     5     2    1
   164   130   132   ar
   165   130   131   ar
   166    16    15    1
   167    57    54    1
   168    89    88    1
   169    15    10   am
   170     4     3    2
   171    85    88    1
   172    85    84    1
   173     3     2    1
   174     3     8   am
   175    10    11    2
   176    10     9    1
   177     2     1    1
   178    53    54    1
   179    54    55    1
   180    84    82   am
   181     9     8    1
   182     9    12    1
   183    83    82    2
   184    82    81    1
   185    56    55    2
   186    55    64   am
   187    67    66    2
   188    81    80    1
   189    80    74   am
   190    64    65    1
   191    12    14    1
   192    12    13    1
   193    66    65    1
   194    66    72   am
   195    79    77   am
   196    73    74    1
   197    73    72    1
   198    73    76    1
   199    74    75    2
   200    65    68    1
   201    77    76    1
   202    77    78    2
   203    68    69    1
   204    69    71    1
   205    69    70    1
