@<TRIPOS>MOLECULE
tmp/2zu8A00.pdb
 203 191 0 0 0
SMALL
GASTEIGER

@<TRIPOS>ATOM
      1  N        -16.7350   -0.8290  -34.2550 N.3    51  PRO51      -0.2116
      2  CA       -17.4130   -1.9280  -34.9440 C.3    51  PRO51       0.1372
      3  C        -17.9350   -2.8310  -33.8300 C.2    51  PRO51       0.2244
      4  O        -17.2670   -3.0020  -32.8010 O.2    51  PRO51      -0.2868
      5  CB       -16.2840   -2.5730  -35.7400 C.3    51  PRO51       0.0268
      6  CG       -15.1090   -2.3790  -34.8400 C.3    51  PRO51       0.0207
      7  CD       -15.2720   -0.9550  -34.3580 C.3    51  PRO51       0.0892
      8  N        -20.4430   -6.5010  -32.8280 N.3    52  LYS52      -0.1245
      9  CA       -21.2290   -7.6290  -33.2260 C.3    52  LYS52       0.1561
     10  C        -21.5870   -8.5380  -32.0490 C.2    52  LYS52       0.2260
     11  O        -20.7250   -9.2120  -31.4780 O.2    52  LYS52      -0.2867
     12  CB       -20.4510   -8.3810  -34.2860 C.3    52  LYS52       0.0271
     13  CG       -21.0670   -9.6490  -34.7380 C.3    52  LYS52       0.0035
     14  CD       -20.2050  -10.1720  -35.8320 C.3    52  LYS52       0.0206
     15  CE       -20.2830  -11.6810  -35.9350 C.3    52  LYS52       0.1093
     16  NZ       -21.5520  -12.1320  -36.5940 N.3    52  LYS52      -0.1314
     17  N        -22.3730   -7.9790  -28.8450 N.3    54  GLU54      -0.1245
     18  CA       -21.6390   -7.8130  -27.6150 C.3    54  GLU54       0.1567
     19  C        -22.6360   -7.5260  -26.5200 C.2    54  GLU54       0.2260
     20  O        -23.7250   -7.0010  -26.7820 O.2    54  GLU54      -0.2867
     21  CB       -20.6520   -6.6540  -27.7180 C.3    54  GLU54       0.0388
     22  CG       -19.5960   -6.7860  -28.8150 C.3    54  GLU54       0.1160
     23  CD       -18.5550   -7.8730  -28.5380 C.2    54  GLU54       0.3649
     24  OE1      -18.6350   -8.5460  -27.4790 O.co2  54  GLU54      -0.2457
     25  OE2      -17.6510   -8.0590  -29.3850 O.co2  54  GLU54      -0.2457
     26  N        -20.9690    0.7380  -36.2950 N.3    75  VAL75      -0.1245
     27  CA       -21.3730   -0.1590  -37.3740 C.3    75  VAL75       0.1561
     28  C        -21.6050   -1.5260  -36.6900 C.2    75  VAL75       0.2260
     29  O        -20.6950   -2.1400  -36.1350 O.2    75  VAL75      -0.2867
     30  CB       -20.2730   -0.2900  -38.4750 C.3    75  VAL75       0.0252
     31  CG1      -20.7160   -1.2800  -39.5330 C.3    75  VAL75       0.0019
     32  CG2      -20.0030    1.0630  -39.1260 C.3    75  VAL75       0.0019
     33  N        -22.9050   -5.5360  -36.8070 N.3    77  ASN77      -0.1240
     34  CA       -23.1000   -6.6930  -37.6640 C.3    77  ASN77       0.1653
     35  C        -23.8000   -7.6700  -36.7680 C.2    77  ASN77       0.2266
     36  O        -23.6720   -8.8830  -36.9140 O.2    77  ASN77      -0.2867
     37  CB       -21.8010   -7.3180  -38.1350 C.3    77  ASN77       0.1155
     38  CG       -22.0430   -8.4020  -39.1700 C.2    77  ASN77       0.2627
     39  OD1      -23.1410   -8.5000  -39.7210 O.2    77  ASN77      -0.2716
     40  ND2      -21.0250   -9.2090  -39.4510 N.am   77  ASN77      -0.0877
     41  N        -24.3300   -3.0510  -40.5840 N.3   108  GLN108     -0.1245
     42  CA       -23.4980   -3.4670  -41.7040 C.3   108  GLN108      0.1566
     43  C        -24.2690   -4.1440  -42.8450 C.2   108  GLN108      0.2260
     44  O        -23.9250   -3.9760  -44.0080 O.2   108  GLN108     -0.2867
     45  CB       -22.4650   -4.4260  -41.1520 C.3   108  GLN108      0.0367
     46  CG       -21.1960   -4.6240  -41.9110 C.3   108  GLN108      0.0905
     47  CD       -20.2430   -5.4930  -41.0880 C.2   108  GLN108      0.2608
     48  OE1      -20.0390   -5.2400  -39.9000 O.2   108  GLN108     -0.2717
     49  NE2      -19.6750   -6.5140  -41.7080 N.am  108  GLN108     -0.0878
     50  N        -19.9550  -10.0750  -44.0840 N.3   133  SER133     -0.1202
     51  CA       -19.6820  -10.0200  -42.6640 C.3   133  SER133      0.2020
     52  C        -18.1870   -9.9200  -42.5470 C.2   133  SER133      0.2619
     53  O        -17.4610  -10.3800  -43.4340 O.2   133  SER133     -0.2717
     54  CB       -20.1370  -11.2960  -41.9750 C.3   133  SER133      0.2103
     55  OG       -21.4660  -11.1870  -41.5190 O.3   133  SER133     -0.2182
     56  N        -17.7130   -9.3420  -41.4530 N.am  134  GLY134     -0.1942
     57  CA       -16.2870   -9.2170  -41.2600 C.3   134  GLY134      0.2014
     58  C        -16.0060   -7.8510  -40.6860 C.2   134  GLY134      0.2638
     59  O        -16.6310   -6.8840  -41.0710 O.2   134  GLY134     -0.2714
     60  N        -15.0300   -7.8000  -39.7850 N.am  135  LYS135     -0.1977
     61  CA       -14.6850   -6.5370  -39.1600 C.3   135  LYS135      0.1596
     62  C        -14.0250   -5.5310  -40.0820 C.2   135  LYS135      0.2287
     63  O        -14.3210   -4.3240  -40.0450 O.2   135  LYS135     -0.2864
     64  CB       -13.7830   -6.7440  -37.9690 C.3   135  LYS135      0.0298
     65  CG       -13.5050   -5.4490  -37.2670 C.3   135  LYS135      0.0038
     66  CD       -13.1400   -5.7240  -35.8310 C.3   135  LYS135      0.0206
     67  CE       -11.6290   -5.8510  -35.7240 C.3   135  LYS135      0.1093
     68  NZ       -11.0310   -4.5310  -35.2560 N.3   135  LYS135     -0.1314
     69  N        -16.8030   -3.8410  -41.6310 N.3   138  GLY138     -0.1225
     70  CA       -17.5500   -2.8710  -40.8480 C.3   138  GLY138      0.1811
     71  C        -16.7780   -1.5670  -40.7570 C.2   138  GLY138      0.2280
     72  O        -17.3240   -0.4800  -40.9290 O.2   138  GLY138     -0.2866
     73  N        -12.6380   -1.1760  -29.9200 N.3   157  ASP157     -0.1225
     74  CA       -13.5050   -2.3330  -29.8470 C.3   157  ASP157      0.1805
     75  C        -14.5440   -2.1780  -28.7410 C.2   157  ASP157      0.2598
     76  O        -14.3790   -1.3780  -27.8280 O.2   157  ASP157     -0.2718
     77  CB       -12.6420   -3.5860  -29.6720 C.3   157  ASP157      0.1424
     78  CG       -11.5380   -3.6890  -30.7500 C.2   157  ASP157      0.3668
     79  OD1      -11.6970   -3.0910  -31.8700 O.co2 157  ASP157     -0.2456
     80  OD2      -10.5150   -4.3730  -30.4690 O.co2 157  ASP157     -0.2456
     81  N        -15.6190   -2.9490  -28.8110 N.am  158  ALA158     -0.1966
     82  CA       -16.6840   -2.8130  -27.8350 C.3   158  ALA158      0.1728
     83  C        -16.6470   -3.8400  -26.7120 C.2   158  ALA158      0.2616
     84  O        -17.2510   -3.6470  -25.6610 O.2   158  ALA158     -0.2715
     85  CB       -18.0480   -2.8660  -28.5610 C.3   158  ALA158      0.0334
     86  N        -15.9390   -4.9340  -26.9140 N.am  159  ASP159     -0.1971
     87  CA       -15.9210   -5.9560  -25.8870 C.3   159  ASP159      0.1709
     88  C        -14.8080   -5.6980  -24.8750 C.2   159  ASP159      0.2293
     89  O        -14.0580   -6.6050  -24.4950 O.2   159  ASP159     -0.2864
     90  CB       -15.7700   -7.3230  -26.5490 C.3   159  ASP159      0.1436
     91  CG       -14.4680   -7.4640  -27.2660 C.2   159  ASP159      0.3671
     92  OD1      -14.0820   -6.5320  -27.9920 O.co2 159  ASP159     -0.2456
     93  OD2      -13.8250   -8.5160  -27.0960 O.co2 159  ASP159     -0.2456
     94  N         -0.2080   -2.9020  -25.5430 N.3   189  TRP189     -0.1241
     95  CA        -0.4540   -3.0010  -24.1100 C.3   189  TRP189      0.1605
     96  C          0.6540   -3.6760  -23.3400 C.2   189  TRP189      0.2264
     97  O          0.9440   -3.2370  -22.2280 O.2   189  TRP189     -0.2867
     98  CB        -1.7750   -3.7170  -23.8450 C.3   189  TRP189      0.0550
     99  CG        -1.8440   -4.9790  -24.5600 C.ar  189  TRP189      0.0003
    100  CD1       -1.3700   -6.1690  -24.1410 C.ar  189  TRP189      0.0946
    101  CD2       -2.3610   -5.1850  -25.8740 C.ar  189  TRP189      0.0152
    102  NE1       -1.5550   -7.1220  -25.1130 N.ar  189  TRP189     -0.2442
    103  CE2       -2.1630   -6.5400  -26.1900 C.ar  189  TRP189      0.0810
    104  CE3       -2.9750   -4.3530  -26.8160 C.ar  189  TRP189      0.0012
    105  CZ2       -2.5550   -7.0930  -27.4160 C.ar  189  TRP189      0.0191
    106  CZ3       -3.3690   -4.8960  -28.0330 C.ar  189  TRP189      0.0001
    107  CH2       -3.1550   -6.2570  -28.3220 C.ar  189  TRP189      0.0015
    108  N         -0.6990  -12.0230  -30.8630 N.3   194  SER194     -0.1217
    109  CA        -0.0670  -10.7200  -30.9800 C.3   194  SER194      0.1889
    110  C          1.4240  -10.9010  -31.2330 C.2   194  SER194      0.2288
    111  O          1.9660  -10.4640  -32.2580 O.2   194  SER194     -0.2866
    112  CB        -0.2710   -9.9630  -29.6670 C.3   194  SER194      0.2089
    113  OG         0.1680   -8.6240  -29.7580 O.3   194  SER194     -0.2183
    114  N         -1.1470   -6.7690  -34.6760 N.3   219  ASN219     -0.1240
    115  CA        -2.5480   -7.0100  -34.4440 C.3   219  ASN219      0.1653
    116  C         -3.1320   -5.9340  -33.5580 C.2   219  ASN219      0.2266
    117  O         -3.8270   -6.2530  -32.6030 O.2   219  ASN219     -0.2867
    118  CB        -2.7380   -8.3290  -33.7280 C.3   219  ASN219      0.1155
    119  CG        -2.6980   -9.4850  -34.6460 C.2   219  ASN219      0.2627
    120  OD1       -3.5770   -9.6560  -35.4990 O.2   219  ASN219     -0.2716
    121  ND2       -1.6750  -10.3100  -34.4890 N.am  219  ASN219     -0.0877
    122  N         -5.8190   -3.9220  -32.6020 N.3   221  GLY221     -0.1210
    123  CA        -7.2290   -3.6340  -32.8270 C.3   221  GLY221      0.1956
    124  C         -7.5650   -2.1900  -32.4720 C.2   221  GLY221      0.2611
    125  O         -8.5980   -1.6580  -32.8600 O.2   221  GLY221     -0.2717
    126  N         -6.7050   -1.5490  -31.6940 N.am  222  GLU222     -0.1979
    127  CA        -6.9210   -0.1610  -31.3580 C.3   222  GLU222      0.1602
    128  C         -5.9200    0.7190  -32.1220 C.2   222  GLU222      0.2287
    129  O         -4.7350    0.7760  -31.7730 O.2   222  GLU222     -0.2864
    130  CB        -6.7690    0.0580  -29.8560 C.3   222  GLU222      0.0415
    131  CG        -8.0880    0.1500  -29.1090 C.3   222  GLU222      0.1163
    132  CD        -8.7590   -1.2140  -28.8620 C.2   222  GLU222      0.3649
    133  OE1       -8.1420   -2.0740  -28.1850 O.co2 222  GLU222     -0.2457
    134  OE2       -9.9110   -1.4200  -29.3310 O.co2 222  GLU222     -0.2457
    135  N        -10.4310  -10.1520  -39.8680 N.3   237  TYR237     -0.1241
    136  CA        -9.3670   -9.7260  -38.9510 C.3   237  TYR237      0.1605
    137  C         -8.0140   -9.4250  -39.6060 C.2   237  TYR237      0.2264
    138  O         -7.0990   -8.9330  -38.9510 O.2   237  TYR237     -0.2867
    139  CB        -9.1510  -10.7940  -37.8720 C.3   237  TYR237      0.0534
    140  CG       -10.3110  -10.9500  -36.9470 C.ar  237  TYR237     -0.0201
    141  CD1      -10.5940   -9.9840  -35.9780 C.ar  237  TYR237     -0.0009
    142  CD2      -11.1690  -12.0380  -37.0680 C.ar  237  TYR237     -0.0009
    143  CE1      -11.7200  -10.1050  -35.1570 C.ar  237  TYR237      0.0417
    144  CE2      -12.2960  -12.1660  -36.2590 C.ar  237  TYR237      0.0417
    145  CZ       -12.5620  -11.2020  -35.3170 C.ar  237  TYR237      0.1957
    146  OH       -13.6870  -11.3390  -34.5680 O.3   237  TYR237     -0.2866
    147  N         -5.8410   -5.2710  -39.8770 N.3   240  GLU240     -0.1245
    148  CA        -4.7170   -4.6320  -39.1950 C.3   240  GLU240      0.1567
    149  C         -3.3220   -5.0440  -39.6700 C.2   240  GLU240      0.2260
    150  O         -2.5230   -4.1880  -40.0390 O.2   240  GLU240     -0.2867
    151  CB        -4.8400   -4.8240  -37.6840 C.3   240  GLU240      0.0388
    152  CG        -6.0450   -4.1220  -37.1360 C.3   240  GLU240      0.1160
    153  CD        -6.9860   -5.0680  -36.4580 C.2   240  GLU240      0.3649
    154  OE1       -6.9190   -6.2890  -36.7530 O.co2 240  GLU240     -0.2457
    155  OE2       -7.8090   -4.5920  -35.6410 O.co2 240  GLU240     -0.2457
    156  N         -4.8280   -4.7670  -21.2780 N.3   279  HIS279     -0.1241
    157  CA        -5.7280   -5.1260  -22.3640 C.3   279  HIS279      0.1621
    158  C         -6.6110   -6.2350  -21.8300 C.2   279  HIS279      0.2264
    159  O         -6.1260   -7.2690  -21.4140 O.2   279  HIS279     -0.2867
    160  CB        -4.8980   -5.6210  -23.5490 C.3   279  HIS279      0.0745
    161  CG        -5.6850   -5.8820  -24.7910 C.ar  279  HIS279      0.0817
    162  ND1       -6.0030   -4.8870  -25.6930 N.ar  279  HIS279     -0.2268
    163  CD2       -6.2340   -7.0200  -25.2760 C.ar  279  HIS279      0.1154
    164  CE1       -6.7190   -5.4030  -26.6790 C.ar  279  HIS279      0.1986
    165  NE2       -6.8750   -6.6940  -26.4480 N.ar  279  HIS279     -0.2212
    166  N        -10.2930   -8.0450  -22.8960 N.3   281  HIS281     -0.1226
    167  CA       -11.5400   -8.2520  -23.6270 C.3   281  HIS281      0.1752
    168  C        -12.2390   -9.4930  -23.1670 C.2   281  HIS281      0.2595
    169  O        -11.6620  -10.3280  -22.4800 O.2   281  HIS281     -0.2718
    170  CB       -11.2920   -8.4580  -25.1070 C.3   281  HIS281      0.0759
    171  CG       -10.9130   -7.2230  -25.8380 C.ar  281  HIS281      0.0818
    172  ND1      -10.9450   -7.1470  -27.2110 N.ar  281  HIS281     -0.2268
    173  CD2      -10.4410   -6.0330  -25.4030 C.ar  281  HIS281      0.1154
    174  CE1      -10.5020   -5.9660  -27.5950 C.ar  281  HIS281      0.1986
    175  NE2      -10.1930   -5.2690  -26.5170 N.ar  281  HIS281     -0.2212
    176  N        -13.4950   -9.6220  -23.5730 N.am  282  GLU282     -0.1979
    177  CA       -14.2340  -10.8250  -23.2590 C.3   282  GLU282      0.1602
    178  C        -13.5920  -11.8530  -24.1930 C.2   282  GLU282      0.2287
    179  O        -13.3740  -11.5880  -25.3710 O.2   282  GLU282     -0.2864
    180  CB       -15.7170  -10.6720  -23.5820 C.3   282  GLU282      0.0415
    181  CG       -16.5200  -11.8810  -23.1450 C.3   282  GLU282      0.1163
    182  CD       -18.0130  -11.7630  -23.4500 C.2   282  GLU282      0.3649
    183  OE1      -18.3900  -11.7140  -24.6410 O.co2 282  GLU282     -0.2457
    184  OE2      -18.8130  -11.7240  -22.4930 O.co2 282  GLU282     -0.2457
    185  N        -13.3850  -14.8970  -26.6280 N.3   284  LYS284     -0.1245
    186  CA       -14.3510  -15.4700  -27.5610 C.3   284  LYS284      0.1561
    187  C        -14.1400  -16.9470  -27.9310 C.2   284  LYS284      0.2260
    188  O        -14.8860  -17.4950  -28.7440 O.2   284  LYS284     -0.2867
    189  CB       -14.3940  -14.6040  -28.8310 C.3   284  LYS284      0.0271
    190  CG       -15.5010  -13.5320  -28.8790 C.3   284  LYS284      0.0035
    191  CD       -15.4000  -12.4720  -27.7680 C.3   284  LYS284      0.0206
    192  CE       -16.4620  -11.3670  -27.9370 C.3   284  LYS284      0.1093
    193  NZ       -16.1840  -10.3720  -29.0220 N.3   284  LYS284     -0.1314
    194  N        -12.3270  -18.8030  -32.4440 N.3   288  HIS288     -0.1241
    195  CA       -12.1600  -17.4200  -32.8430 C.3   288  HIS288      0.1621
    196  C        -10.6700  -17.0880  -32.8070 C.2   288  HIS288      0.2264
    197  O        -10.1270  -16.4860  -33.7310 O.2   288  HIS288     -0.2867
    198  CB       -12.9340  -16.5280  -31.8560 C.3   288  HIS288      0.0745
    199  CG       -12.4240  -15.1260  -31.7510 C.ar  288  HIS288      0.0817
    200  ND1      -12.8560  -14.1100  -32.5780 N.ar  288  HIS288     -0.2268
    201  CD2      -11.5140  -14.5710  -30.9150 C.ar  288  HIS288      0.1154
    202  CE1      -12.2290  -12.9920  -32.2550 C.ar  288  HIS288      0.1986
    203  NE2      -11.4090  -13.2450  -31.2520 N.ar  288  HIS288     -0.2212
@<TRIPOS>BOND
     1    50    51    1
     2    44    43    2
     3    53    52    2
     4    43    42    1
     5    51    52    1
     6    51    54    1
     7    52    56   am
     8    54    55    1
     9    46    45    1
    10    46    47    1
    11    49    47   am
    12    42    45    1
    13    42    41    1
    14    69    70    1
    15    56    57    1
    16    57    58    1
    17    47    48    2
    18    59    58    2
    19    72    71    2
    20    70    71    1
    21    58    60   am
    22    62    63    2
    23    62    61    1
    24   150   149    2
    25   147   148    1
    26   135   136    1
    27    60    61    1
    28    39    38    2
    29   149   148    1
    30   137   136    1
    31   137   138    2
    32    31    30    1
    33    40    38   am
    34   148   151    1
    35    38    37    1
    36    61    64    1
    37    32    30    1
    38   136   139    1
    39    30    27    1
    40    37    34    1
    41    64    65    1
    42   139   140    1
    43   151   152    1
    44    34    33    1
    45    34    35    1
    46    27    28    1
    47    27    26    1
    48    65    66    1
    49   152   153    1
    50   142   140   ar
    51   142   144   ar
    52   140   141   ar
    53    36    35    2
    54   154   153   ar
    55    28    29    2
    56    16    15    1
    57   153   155   ar
    58   144   145   ar
    59   141   143   ar
    60    15    14    1
    61    14    13    1
    62    66    67    1
    63     5     2    1
    64     5     6    1
    65    67    68    1
    66   120   119    2
    67   145   143   ar
    68   145   146    1
    69     2     1    1
    70     2     3    1
    71     6     7    1
    72    13    12    1
    73   114   115    1
    74   119   121   am
    75   119   118    1
    76   115   118    1
    77   115   116    1
    78     7     1    1
    79    12     9    1
    80     3     4    2
    81   197   196    2
    82   116   117    2
    83     9     8    1
    84     9    10    1
    85   125   124    2
    86   195   196    1
    87   195   194    1
    88   195   198    1
    89   123   122    1
    90   123   124    1
    91   200   202   ar
    92   200   199   ar
    93   124   126   am
    94   111   110    2
    95   202   203   ar
    96   128   129    2
    97   128   127    1
    98    10    11    2
    99    79    78   ar
   100   198   199    1
   101   199   201   ar
   102   126   127    1
   103   127   130    1
   104   203   201   ar
   105   110   109    1
   106   109   108    1
   107   109   112    1
   108    78    80   ar
   109    78    77    1
   110    73    74    1
   111   130   131    1
   112    74    77    1
   113    74    75    1
   114   113   112    1
   115    25    23   ar
   116   134   132   ar
   117   131   132    1
   118   193   192    1
   119   190   189    1
   120   190   191    1
   121   132   133   ar
   122    17    18    1
   123   189   186    1
   124    22    23    1
   125    22    21    1
   126    81    75   am
   127    81    82    1
   128   188   187    2
   129    75    76    2
   130    85    82    1
   131    23    24   ar
   132   107   106   ar
   133   107   105   ar
   134   106   104   ar
   135    92    91   ar
   136   192   191    1
   137   187   186    1
   138    82    83    1
   139    21    18    1
   140    18    19    1
   141   174   172   ar
   142   174   175   ar
   143   186   185    1
   144   105   103   ar
   145    91    93   ar
   146    91    90    1
   147   172   171   ar
   148    86    83   am
   149    86    87    1
   150   104   101   ar
   151    20    19    2
   152    83    84    2
   153   164   165   ar
   154   164   162   ar
   155    90    87    1
   156   175   173   ar
   157   165   163   ar
   158   103   101   ar
   159   103   102   ar
   160    87    88    1
   161   101    99   ar
   162   171   173   ar
   163   171   170    1
   164   162   161   ar
   165    94    95    1
   166   179   178    2
   167   163   161   ar
   168   102   100   ar
   169   170   167    1
   170    88    89    2
   171   161   160    1
   172   183   182   ar
   173    99   100   ar
   174    99    98    1
   175   178   177    1
   176    95    98    1
   177    95    96    1
   178   167   168    1
   179   167   166    1
   180   180   177    1
   181   180   181    1
   182   176   177    1
   183   176   168   am
   184   160   157    1
   185   182   181    1
   186   182   184   ar
   187    96    97    2
   188   168   169    2
   189   157   158    1
   190   157   156    1
   191   158   159    2
