@<TRIPOS>MOLECULE
tmp/2zu9B00.pdb
 144 135 0 0 0
SMALL
GASTEIGER

@<TRIPOS>ATOM
      1  N         -1.7870    6.0050    0.8330 N.3    47  PRO47      -0.2116
      2  CA        -1.1710    5.1680    1.8610 C.3    47  PRO47       0.1372
      3  C         -0.7780    3.8580    1.1600 C.2    47  PRO47       0.2244
      4  O         -1.5860    3.2340    0.4620 O.2    47  PRO47      -0.2868
      5  CB        -2.2830    5.0060    2.8940 C.3    47  PRO47       0.0268
      6  CG        -3.5360    5.0820    2.0940 C.3    47  PRO47       0.0207
      7  CD        -3.2620    5.9380    0.8700 C.3    47  PRO47       0.0892
      8  N          1.7610    0.1020    1.3160 N.3    48  LYS48      -0.1245
      9  CA         2.5320   -0.8140    2.1230 C.3    48  LYS48       0.1561
     10  C          2.8910   -2.0440    1.3090 C.2    48  LYS48       0.2260
     11  O          2.0260   -2.8490    1.0060 O.2    48  LYS48      -0.2867
     12  CB         1.7190   -1.2380    3.3420 C.3    48  LYS48       0.0271
     13  CG         2.5110   -2.1270    4.2550 C.3    48  LYS48       0.0035
     14  CD         1.6750   -2.7420    5.3380 C.3    48  LYS48       0.0206
     15  CE         2.6010   -3.3900    6.3450 C.3    48  LYS48       0.1093
     16  NZ         1.8840   -4.3540    7.2060 N.3    48  LYS48      -0.1314
     17  N          3.4420   -2.5680   -1.8200 N.3    50  GLU50      -0.1245
     18  CA         2.7200   -2.8210   -3.0700 C.3    50  GLU50       0.1567
     19  C          3.7280   -2.9140   -4.2110 C.2    50  GLU50       0.2260
     20  O          4.8430   -2.4080   -4.0940 O.2    50  GLU50      -0.2867
     21  CB         1.7190   -1.6940   -3.3730 C.3    50  GLU50       0.0388
     22  CG         0.6640   -1.4550   -2.3070 C.3    50  GLU50       0.1160
     23  CD        -0.2080   -2.6910   -2.0360 C.2    50  GLU50       0.3649
     24  OE1       -0.1240   -3.6860   -2.7900 O.co2  50  GLU50      -0.2457
     25  OE2       -0.9840   -2.6600   -1.0670 O.co2  50  GLU50      -0.2457
     26  N          2.2150    8.0590    2.1670 N.3    71  VAL71      -0.1245
     27  CA         2.6190    7.5480    3.4550 C.3    71  VAL71       0.1561
     28  C          2.8660    6.0460    3.3260 C.2    71  VAL71       0.2260
     29  O          1.9420    5.2370    3.2030 O.2    71  VAL71      -0.2867
     30  CB         1.5720    7.8120    4.5150 C.3    71  VAL71       0.0252
     31  CG1        2.0980    7.3130    5.8550 C.3    71  VAL71       0.0019
     32  CG2        1.2470    9.3090    4.5620 C.3    71  VAL71       0.0019
     33  N          4.3660    2.3750    4.6490 N.3    73  ASN73      -0.1240
     34  CA         4.6280    1.5820    5.8480 C.3    73  ASN73       0.1653
     35  C          5.2390    0.3010    5.3110 C.2    73  ASN73       0.2266
     36  O          5.0310   -0.7940    5.8490 O.2    73  ASN73      -0.2867
     37  CB         3.3630    1.2500    6.6340 C.3    73  ASN73       0.1155
     38  CG         3.6870    0.6150    7.9740 C.2    73  ASN73       0.2627
     39  OD1        4.7300    0.9080    8.5580 O.2    73  ASN73      -0.2716
     40  ND2        2.8080   -0.2460    8.4730 N.am   73  ASN73      -0.0877
     41  N          5.8100    5.8200    7.5520 N.3   104  GLN104     -0.1245
     42  CA         4.9810    5.7790    8.7660 C.3   104  GLN104      0.1566
     43  C          5.7350    5.6090   10.0860 C.2   104  GLN104      0.2260
     44  O          5.3370    6.1560   11.1110 O.2   104  GLN104     -0.2867
     45  CB         3.9590    4.6430    8.6290 C.3   104  GLN104      0.0367
     46  CG         2.7860    4.7340    9.5580 C.3   104  GLN104      0.0905
     47  CD         1.6510    3.7980    9.1640 C.2   104  GLN104      0.2608
     48  OE1        1.3560    3.6150    7.9720 O.2   104  GLN104     -0.2717
     49  NE2        0.9930    3.2190   10.1650 N.am  104  GLN104     -0.0878
     50  N          1.6540    0.5530   13.4760 N.3   129  SER129     -0.1202
     51  CA         1.5320    0.0530   12.1140 C.3   129  SER129      0.2020
     52  C          0.0400   -0.0360   11.8070 C.2   129  SER129      0.2619
     53  O         -0.7500   -0.3440   12.6930 O.2   129  SER129     -0.2717
     54  CB         2.1870   -1.3280   12.0370 C.3   129  SER129      0.2103
     55  OG         2.0370   -1.8990   10.7610 O.3   129  SER129     -0.2182
     56  N         -0.3550    0.2500   10.5690 N.am  130  GLY130     -0.1942
     57  CA        -1.7690    0.2000   10.2170 C.3   130  GLY130      0.2014
     58  C         -2.1990    1.2850    9.2450 C.2   130  GLY130      0.2638
     59  O         -1.6230    2.3770    9.2050 O.2   130  GLY130     -0.2714
     60  N         -3.2180    0.9850    8.4490 N.am  131  LYS131     -0.1977
     61  CA        -3.7370    1.9320    7.4550 C.3   131  LYS131      0.1596
     62  C         -4.3340    3.2160    8.0550 C.2   131  LYS131      0.2287
     63  O         -4.1050    4.3100    7.5360 O.2   131  LYS131     -0.2864
     64  CB        -4.7940    1.2430    6.5860 C.3   131  LYS131      0.0298
     65  CG        -5.2730    2.0690    5.3910 C.3   131  LYS131      0.0038
     66  CD        -6.4090    1.3360    4.6680 C.3   131  LYS131      0.0206
     67  CE        -6.8560    2.0490    3.4010 C.3   131  LYS131      0.1093
     68  NZ        -8.3090    1.7960    3.0970 N.3   131  LYS131     -0.1314
     69  N         -1.5540    5.5220    9.0250 N.3   134  GLY134     -0.1225
     70  CA        -0.9370    6.1510    7.8660 C.3   134  GLY134      0.1811
     71  C         -1.7920    7.2610    7.2900 C.2   134  GLY134      0.2280
     72  O         -1.2730    8.2830    6.8340 O.2   134  GLY134     -0.2866
     73  N         -6.1610    3.9670   -3.1790 N.3   153  ASP153     -0.1225
     74  CA        -5.3070    2.8310   -2.8860 C.3   153  ASP153      0.1805
     75  C         -4.2270    2.6910   -3.9590 C.2   153  ASP153      0.2598
     76  O         -4.4620    2.9310   -5.1420 O.2   153  ASP153     -0.2718
     77  CB        -6.1630    1.5520   -2.7590 C.3   153  ASP153      0.1424
     78  CG        -7.1190    1.5940   -1.5530 C.2   153  ASP153      0.3668
     79  OD1       -6.8740    2.3830   -0.5940 O.co2 153  ASP153     -0.2456
     80  OD2       -8.1180    0.8200   -1.5450 O.co2 153  ASP153     -0.2456
     81  N         -3.0310    2.3030   -3.5310 N.am  154  ALA154     -0.1966
     82  CA        -1.8930    2.1720   -4.4300 C.3   154  ALA154      0.1728
     83  C         -1.7980    0.8660   -5.2230 C.2   154  ALA154      0.2616
     84  O         -0.9470    0.7360   -6.1020 O.2   154  ALA154     -0.2715
     85  CB        -0.5990    2.3980   -3.6360 C.3   154  ALA154      0.0334
     86  N         -2.6570   -0.0980   -4.9290 N.am  155  ASP155     -0.1971
     87  CA        -2.6280   -1.3890   -5.6260 C.3   155  ASP155      0.1709
     88  C         -3.6670   -1.5360   -6.7650 C.2   155  ASP155      0.2293
     89  O         -4.1400   -2.6440   -7.0560 O.2   155  ASP155     -0.2864
     90  CB        -2.8120   -2.5270   -4.5910 C.3   155  ASP155      0.1436
     91  CG        -4.1990   -2.5430   -3.9610 C.2   155  ASP155      0.3671
     92  OD1       -4.7680   -1.4520   -3.7490 O.co2 155  ASP155     -0.2456
     93  OD2       -4.7200   -3.6520   -3.6650 O.co2 155  ASP155     -0.2456
     94  N         -9.6610   -2.5070    8.7840 N.3   230  TYR230     -0.1241
     95  CA       -10.7920   -2.5260    7.8610 C.3   230  TYR230      0.1605
     96  C        -11.9300   -1.7830    8.5020 C.2   230  TYR230      0.2264
     97  O        -13.0030   -1.6660    7.9260 O.2   230  TYR230     -0.2867
     98  CB       -11.2740   -3.9520    7.5860 C.3   230  TYR230      0.0534
     99  CG       -10.3480   -4.7620    6.7250 C.ar  230  TYR230     -0.0201
    100  CD1      -10.1940   -4.4750    5.3650 C.ar  230  TYR230     -0.0009
    101  CD2       -9.6030   -5.8010    7.2780 C.ar  230  TYR230     -0.0009
    102  CE1       -9.3250   -5.1980    4.5850 C.ar  230  TYR230      0.0417
    103  CE2       -8.7250   -6.5290    6.5060 C.ar  230  TYR230      0.0417
    104  CZ        -8.5960   -6.2220    5.1620 C.ar  230  TYR230      0.1957
    105  OH        -7.7330   -6.9480    4.3910 O.3   230  TYR230     -0.2866
    106  N        -13.6210   -1.9910  -10.5630 N.3   272  HIS272     -0.1241
    107  CA       -12.5780   -1.9900   -9.5590 C.3   272  HIS272      0.1621
    108  C        -11.6790   -3.2210   -9.5710 C.2   272  HIS272      0.2264
    109  O        -12.0910   -4.2990   -9.1500 O.2   272  HIS272     -0.2867
    110  CB       -13.2060   -1.8480   -8.1760 C.3   272  HIS272      0.0745
    111  CG       -12.2100   -1.5940   -7.0910 C.ar  272  HIS272      0.0817
    112  ND1      -12.1960   -2.3040   -5.9100 N.ar  272  HIS272     -0.2268
    113  CD2      -11.1960   -0.7000   -7.0040 C.ar  272  HIS272      0.1154
    114  CE1      -11.2190   -1.8580   -5.1410 C.ar  272  HIS272      0.1986
    115  NE2      -10.5970   -0.8830   -5.7790 N.ar  272  HIS272     -0.2212
    116  N         -8.1010   -4.5110   -8.1580 N.3   274  HIS274     -0.1241
    117  CA        -6.9410   -4.3030   -7.3220 C.3   274  HIS274      0.1621
    118  C         -6.3150   -5.6440   -6.9940 C.2   274  HIS274      0.2264
    119  O         -6.7730   -6.6880   -7.4530 O.2   274  HIS274     -0.2867
    120  CB        -7.3060   -3.5390   -6.0360 C.3   274  HIS274      0.0745
    121  CG        -8.2720   -4.2540   -5.1470 C.ar  274  HIS274      0.0817
    122  ND1       -8.0820   -4.3610   -3.7860 N.ar  274  HIS274     -0.2268
    123  CD2       -9.4580   -4.8520   -5.4110 C.ar  274  HIS274      0.1154
    124  CE1       -9.1100   -4.9930   -3.2500 C.ar  274  HIS274      0.1986
    125  NE2       -9.9600   -5.3000   -4.2140 N.ar  274  HIS274     -0.2212
    126  N         -5.2710  -10.0890   -2.0980 N.3   277  LYS277     -0.1245
    127  CA        -4.4010  -10.3860   -0.9640 C.3   277  LYS277      0.1561
    128  C         -4.6080  -11.7190   -0.2210 C.2   277  LYS277      0.2260
    129  O         -3.9810  -11.9530    0.8180 O.2   277  LYS277     -0.2867
    130  CB        -4.4730   -9.2390    0.0590 C.3   277  LYS277      0.0271
    131  CG        -3.2850   -8.2820    0.0450 C.3   277  LYS277      0.0035
    132  CD        -3.4030   -7.2130   -1.0300 C.3   277  LYS277      0.0206
    133  CE        -2.1600   -6.3130   -1.0550 C.3   277  LYS277      0.1093
    134  NZ        -2.4040   -4.9090   -0.5800 N.3   277  LYS277     -0.1314
    135  N         -7.6980  -12.0710    4.6220 N.3   281  HIS281     -0.1241
    136  CA        -7.9750  -10.6500    4.5740 C.3   281  HIS281      0.1621
    137  C         -9.4820  -10.4780    4.5300 C.2   281  HIS281      0.2264
    138  O        -10.0560   -9.8030    5.3800 O.2   281  HIS281     -0.2867
    139  CB        -7.3310  -10.0250    3.3390 C.3   281  HIS281      0.0745
    140  CG        -6.1130   -9.2260    3.6590 C.ar  281  HIS281      0.0817
    141  ND1       -5.2480   -9.5840    4.6720 N.ar  281  HIS281     -0.2268
    142  CD2       -5.6370   -8.0670    3.1470 C.ar  281  HIS281      0.1154
    143  CE1       -4.2950   -8.6740    4.7740 C.ar  281  HIS281      0.1986
    144  NE2       -4.5080   -7.7420    3.8610 N.ar  281  HIS281     -0.2212
@<TRIPOS>BOND
     1   106   107    1
     2   108   107    1
     3   108   109    2
     4   107   110    1
     5   110   111    1
     6   116   117    1
     7   119   118    2
     8   117   118    1
     9   117   120    1
    10   111   113   ar
    11   111   112   ar
    12    89    88    2
    13   113   115   ar
    14    88    87    1
    15    84    83    2
    16   120   121    1
    17   112   114   ar
    18   115   114   ar
    19    87    86    1
    20    87    90    1
    21   123   121   ar
    22   123   125   ar
    23    83    86   am
    24    83    82    1
    25   121   122   ar
    26    76    75    2
    27    90    91    1
    28    82    85    1
    29    82    81    1
    30   125   124   ar
    31    19    20    2
    32    19    18    1
    33    91    92   ar
    34    91    93   ar
    35    75    81   am
    36    75    74    1
    37   122   124   ar
    38    21    18    1
    39    21    22    1
    40    73    74    1
    41    18    17    1
    42    74    77    1
    43    24    23   ar
    44    77    78    1
    45    22    23    1
    46   126   127    1
    47    23    25   ar
    48    78    80   ar
    49    78    79   ar
    50   133   132    1
    51   133   134    1
    52   132   131    1
    53   127   128    1
    54   127   130    1
    55   128   129    2
    56   131   130    1
    57     4     3    2
    58     1     7    1
    59     1     2    1
    60     7     6    1
    61    11    10    2
    62     3     2    1
    63    10     9    1
    64     8     9    1
    65     2     5    1
    66     6     5    1
    67     9    12    1
    68    26    27    1
    69    68    67    1
    70   142   140   ar
    71   142   144   ar
    72    29    28    2
    73    28    27    1
    74   139   140    1
    75   139   136    1
    76    12    13    1
    77    67    66    1
    78    27    30    1
    79   140   141   ar
    80   144   143   ar
    81    13    14    1
    82   105   104    1
    83    30    32    1
    84    30    31    1
    85   137   136    1
    86   137   138    2
    87   136   135    1
    88   102   104   ar
    89   102   100   ar
    90    33    34    1
    91    66    65    1
    92   141   143   ar
    93   104   103   ar
    94    35    34    1
    95    35    36    2
    96    14    15    1
    97   100    99   ar
    98    65    64    1
    99    34    37    1
   100    15    16    1
   101   103   101   ar
   102    64    61    1
   103    37    38    1
   104    99   101   ar
   105    99    98    1
   106    72    71    2
   107    71    70    1
   108    61    62    1
   109    61    60    1
   110    63    62    2
   111    41    42    1
   112    98    95    1
   113    95    96    1
   114    95    94    1
   115    70    69    1
   116    97    96    2
   117    48    47    2
   118    38    40   am
   119    38    39    2
   120    60    58   am
   121    45    42    1
   122    45    46    1
   123    42    43    1
   124    47    46    1
   125    47    49   am
   126    59    58    2
   127    58    57    1
   128    43    44    2
   129    57    56    1
   130    56    52   am
   131    55    54    1
   132    52    51    1
   133    52    53    2
   134    54    51    1
   135    51    50    1
