@<TRIPOS>MOLECULE
tmp/2zunB00.pdb
 158 153 0 0 0
SMALL
GASTEIGER

@<TRIPOS>ATOM
      1  N         10.4040   -0.5740   51.0080 N.3    38  PHE38      -0.1241
      2  CA         9.9860   -0.7430   49.6020 C.3    38  PHE38       0.1605
      3  C          8.4960   -0.7030   49.2850 C.2    38  PHE38       0.2264
      4  O          7.6550   -0.7920   50.1740 O.2    38  PHE38      -0.2867
      5  CB        10.5930   -1.9980   49.0060 C.3    38  PHE38       0.0534
      6  CG        10.0500   -3.3030   49.5710 C.ar   38  PHE38      -0.0203
      7  CD1       10.7720   -4.0370   50.5080 C.ar   38  PHE38      -0.0042
      8  CD2        8.8650   -3.8550   49.0670 C.ar   38  PHE38      -0.0042
      9  CE1       10.3380   -5.2910   50.9370 C.ar   38  PHE38      -0.0003
     10  CE2        8.4180   -5.1150   49.5000 C.ar   38  PHE38      -0.0003
     11  CZ         9.1600   -5.8300   50.4380 C.ar   38  PHE38      -0.0000
     12  N          8.4030    0.5340   44.0360 N.3    41  GLU41      -0.1231
     13  CA         8.8870   -0.1240   42.8370 C.3    41  GLU41       0.1699
     14  C          7.9310   -1.2520   42.4830 C.2    41  GLU41       0.2592
     15  O          8.2220   -2.0510   41.5980 O.2    41  GLU41      -0.2718
     16  CB        10.2890   -0.6880   43.0260 C.3    41  GLU41       0.0402
     17  CG        10.3330   -2.0470   43.7260 C.3    41  GLU41       0.1161
     18  CD        10.0820   -1.9830   45.2210 C.2    41  GLU41       0.3649
     19  OE1        9.6170   -0.9410   45.7140 O.co2  41  GLU41      -0.2457
     20  OE2       10.3400   -2.9870   45.9080 O.co2  41  GLU41      -0.2457
     21  N          6.7860   -1.3360   43.1460 N.am   42  THR42      -0.1953
     22  CA         5.8870   -2.4400   42.8460 C.3    42  THR42       0.1897
     23  C          4.5410   -2.0190   42.2650 C.2    42  THR42       0.2313
     24  O          4.2760   -0.8300   42.0790 O.2    42  THR42      -0.2863
     25  CB         5.6720   -3.3490   44.1070 C.3    42  THR42       0.1794
     26  OG1        4.6590   -2.7990   44.9560 O.3    42  THR42      -0.2208
     27  CG2        6.9780   -3.4700   44.9130 C.3    42  THR42       0.0378
     28  N          4.9150   -0.3070   50.9610 N.3    48  HIS48      -0.1241
     29  CA         3.9660   -1.2500   51.5300 C.3    48  HIS48       0.1621
     30  C          3.6590   -1.0430   53.0050 C.2    48  HIS48       0.2264
     31  O          4.4400   -0.4360   53.7370 O.2    48  HIS48      -0.2867
     32  CB         4.4410   -2.6700   51.3190 C.3    48  HIS48       0.0745
     33  CG         4.4560   -3.0760   49.8850 C.ar   48  HIS48       0.0817
     34  ND1        4.7660   -4.3540   49.4650 N.ar   48  HIS48      -0.2268
     35  CD2        4.1490   -2.3750   48.7710 C.ar   48  HIS48       0.1154
     36  CE1        4.6610   -4.4160   48.1490 C.ar   48  HIS48       0.1986
     37  NE2        4.2930   -3.2270   47.7050 N.ar   48  HIS48      -0.2212
     38  N         14.9150    1.1730   41.1550 N.3   124  HIS124     -0.1226
     39  CA        14.8610   -0.2590   41.3720 C.3   124  HIS124      0.1752
     40  C         14.4720   -1.2420   40.2680 C.2   124  HIS124      0.2595
     41  O         15.0190   -2.3460   40.1700 O.2   124  HIS124     -0.2718
     42  CB        13.9720   -0.4670   42.5980 C.3   124  HIS124      0.0759
     43  CG        14.3310   -1.6680   43.4220 C.ar  124  HIS124      0.0818
     44  ND1       15.3350   -1.6560   44.3760 N.ar  124  HIS124     -0.2268
     45  CD2       13.7830   -2.9090   43.4650 C.ar  124  HIS124      0.1154
     46  CE1       15.3930   -2.8420   44.9570 C.ar  124  HIS124      0.1986
     47  NE2       14.4750   -3.6260   44.4100 N.ar  124  HIS124     -0.2212
     48  N         13.5360   -0.7960   39.4550 N.am  125  ARG125     -0.1980
     49  CA        12.9770   -1.6020   38.3910 C.3   125  ARG125      0.1597
     50  C         12.6000   -0.6220   37.3040 C.2   125  ARG125      0.2287
     51  O         12.1970    0.4880   37.6460 O.2   125  ARG125     -0.2864
     52  CB        11.6900   -2.2470   38.8540 C.3   125  ARG125      0.0334
     53  CG        11.7920   -3.4000   39.8310 C.3   125  ARG125      0.0492
     54  CD        10.4930   -3.7260   40.5760 C.3   125  ARG125      0.2205
     55  NE        10.6780   -4.9690   41.3220 N.pl3 125  ARG125     -0.0865
     56  CZ         9.7070   -5.6570   41.9170 C.cat 125  ARG125      0.5346
     57  NH1        8.4560   -5.2310   41.8740 N.pl3 125  ARG125      0.1354
     58  NH2       10.0000   -6.7840   42.5540 N.pl3 125  ARG125      0.1354
     59  N         13.2920   -6.9530   38.6650 N.3   131  ILE131     -0.1245
     60  CA        14.5300   -6.2380   38.4460 C.3   131  ILE131      0.1561
     61  C         15.1810   -6.6920   37.1410 C.2   131  ILE131      0.2260
     62  O         15.7060   -7.7910   37.0710 O.2   131  ILE131     -0.2867
     63  CB        15.5550   -6.5470   39.5560 C.3   131  ILE131      0.0252
     64  CG1       15.0270   -6.1310   40.9300 C.3   131  ILE131      0.0019
     65  CG2       16.8510   -5.8670   39.2510 C.3   131  ILE131      0.0019
     66  CD1       15.7360   -6.8880   42.0480 C.3   131  ILE131      0.0001
     67  N         19.2850   -0.5490   40.5240 N.3   169  ASN169     -0.1225
     68  CA        19.2790   -1.6340   41.4680 C.3   169  ASN169      0.1785
     69  C         19.7590   -2.9000   40.8500 C.2   169  ASN169      0.2597
     70  O         19.2750   -3.3710   39.8320 O.2   169  ASN169     -0.2718
     71  CB        17.9060   -1.8820   42.0350 C.3   169  ASN169      0.1169
     72  CG        17.9020   -3.0200   43.0400 C.2   169  ASN169      0.2627
     73  OD1       17.2360   -4.0380   42.8570 O.2   169  ASN169     -0.2716
     74  ND2       18.6430   -2.8440   44.1230 N.am  169  ASN169     -0.0877
     75  N         20.7890   -3.4670   41.4570 N.am  170  GLU170     -0.1979
     76  CA        21.2900   -4.7830   41.0790 C.3   170  GLU170      0.1602
     77  C         21.4890   -5.1400   39.5680 C.2   170  GLU170      0.2287
     78  O         20.7310   -5.9330   38.9990 O.2   170  GLU170     -0.2864
     79  CB        20.3510   -5.7750   41.7240 C.3   170  GLU170      0.0415
     80  CG        20.3050   -5.6500   43.2920 C.3   170  GLU170      0.1163
     81  CD        19.6840   -6.8710   43.9870 C.2   170  GLU170      0.3649
     82  OE1       19.9420   -7.0600   45.2070 O.co2 170  GLU170     -0.2457
     83  OE2       18.9360   -7.6210   43.3310 O.co2 170  GLU170     -0.2457
     84  N         24.1700  -10.7920   50.8830 N.3   268  TYR268     -0.1241
     85  CA        23.1300  -11.5370   51.5550 C.3   268  TYR268      0.1605
     86  C         23.5520  -12.8410   52.2080 C.2   268  TYR268      0.2264
     87  O         24.6920  -13.2930   52.0570 O.2   268  TYR268     -0.2867
     88  CB        21.9960  -11.7660   50.5490 C.3   268  TYR268      0.0534
     89  CG        21.0540  -10.5750   50.3610 C.ar  268  TYR268     -0.0201
     90  CD1       20.1720  -10.1910   51.3760 C.ar  268  TYR268     -0.0009
     91  CD2       21.0360   -9.8280   49.1680 C.ar  268  TYR268     -0.0009
     92  CE1       19.3060   -9.1230   51.2230 C.ar  268  TYR268      0.0417
     93  CE2       20.1770   -8.7460   49.0100 C.ar  268  TYR268      0.0417
     94  CZ        19.3150   -8.4020   50.0370 C.ar  268  TYR268      0.1957
     95  OH        18.4550   -7.3550   49.8620 O.3   268  TYR268     -0.2866
     96  N         18.7420  -16.0930   51.2450 N.3   272  VAL272     -0.1245
     97  CA        18.4360  -15.5440   49.9390 C.3   272  VAL272      0.1561
     98  C         18.9300  -16.4950   48.8970 C.2   272  VAL272      0.2260
     99  O         18.3330  -16.6450   47.8440 O.2   272  VAL272     -0.2867
    100  CB        19.0290  -14.1260   49.7430 C.3   272  VAL272      0.0252
    101  CG1       18.6250  -13.5650   48.3670 C.3   272  VAL272      0.0019
    102  CG2       18.4750  -13.1880   50.8310 C.3   272  VAL272      0.0019
    103  N         22.1450   -3.1060   50.5820 N.3   311  GLU311     -0.1245
    104  CA        21.1790   -4.0870   50.9880 C.3   311  GLU311      0.1567
    105  C         21.8520   -5.2410   51.6560 C.2   311  GLU311      0.2260
    106  O         22.9150   -5.6940   51.2430 O.2   311  GLU311     -0.2867
    107  CB        20.4210   -4.6560   49.7860 C.3   311  GLU311      0.0388
    108  CG        19.3170   -3.8050   49.1650 C.3   311  GLU311      0.1160
    109  CD        18.6180   -4.5340   48.0290 C.2   311  GLU311      0.3649
    110  OE1       18.7290   -5.7620   47.9640 O.co2 311  GLU311     -0.2457
    111  OE2       17.9580   -3.8700   47.2220 O.co2 311  GLU311     -0.2457
    112  N         17.8220   -4.6250   54.5210 N.3   346  TRP346     -0.1241
    113  CA        16.6650   -5.0690   53.6820 C.3   346  TRP346      0.1605
    114  C         15.9620   -5.9410   54.8280 C.2   346  TRP346      0.2264
    115  O         16.3800   -7.1090   54.9330 O.2   346  TRP346     -0.2867
    116  CB        17.1230   -5.6850   52.3780 C.3   346  TRP346      0.0550
    117  CG        15.9330   -5.9750   51.4940 C.ar  346  TRP346      0.0003
    118  CD1       15.1580   -7.1000   51.5620 C.ar  346  TRP346      0.0946
    119  CD2       15.3390   -5.1440   50.4690 C.ar  346  TRP346      0.0152
    120  NE1       14.1210   -7.0180   50.6670 N.ar  346  TRP346     -0.2442
    121  CE2       14.2080   -5.8360   49.9780 C.ar  346  TRP346      0.0810
    122  CE3       15.6570   -3.9010   49.9230 C.ar  346  TRP346      0.0012
    123  CZ2       13.3900   -5.3190   48.9670 C.ar  346  TRP346      0.0191
    124  CZ3       14.8350   -3.3630   48.9090 C.ar  346  TRP346      0.0001
    125  CH2       13.7120   -4.0820   48.4490 C.ar  346  TRP346      0.0015
    126  N          6.9680   -8.0840   54.5080 N.3   351  ASP351     -0.1225
    127  CA         6.6430   -8.8230   53.2780 C.3   351  ASP351      0.1805
    128  C          7.7000   -8.9550   52.1760 C.2   351  ASP351      0.2598
    129  O          7.4200   -8.6830   51.0090 O.2   351  ASP351     -0.2718
    130  CB         5.3820   -8.2420   52.6720 C.3   351  ASP351      0.1424
    131  CG         5.5990   -6.8780   52.1140 C.2   351  ASP351      0.3668
    132  OD1        6.5510   -6.2350   52.5840 O.co2 351  ASP351     -0.2456
    133  OD2        4.8410   -6.4470   51.2230 O.co2 351  ASP351     -0.2456
    134  N          8.9040   -9.3560   52.5450 N.am  352  SER352     -0.1938
    135  CA         9.9290   -9.5870   51.5740 C.3   352  SER352      0.2055
    136  C         10.0760  -11.0660   51.7850 C.2   352  SER352      0.2644
    137  O         10.4580  -11.5620   52.8650 O.2   352  SER352     -0.2714
    138  CB        11.2190   -8.8140   51.9260 C.3   352  SER352      0.2130
    139  OG        12.3570   -9.4390   51.3740 O.3   352  SER352     -0.2179
    140  N          9.6880  -11.7920   50.7580 N.am  353  GLY353     -0.1939
    141  CA         9.6800  -13.2350   50.8150 C.3   353  GLY353      0.2014
    142  C         10.8510  -14.0220   51.3200 C.2   353  GLY353      0.2639
    143  O         10.6660  -15.0030   52.0280 O.2   353  GLY353     -0.2714
    144  N         12.0540  -13.6040   50.9800 N.am  354  ASP354     -0.1957
    145  CA        13.1900  -14.3730   51.3900 C.3   354  ASP354      0.1840
    146  C         14.0660  -13.7890   52.4710 C.2   354  ASP354      0.2622
    147  O         15.1190  -14.3520   52.7630 O.2   354  ASP354     -0.2715
    148  CB        14.0470  -14.6770   50.1860 C.3   354  ASP354      0.1450
    149  CG        14.4560  -13.4310   49.4420 C.2   354  ASP354      0.3671
    150  OD1       15.3820  -13.5120   48.6180 O.co2 354  ASP354     -0.2456
    151  OD2       13.8480  -12.3690   49.6740 O.co2 354  ASP354     -0.2456
    152  N         13.6680  -12.6860   53.0680 N.am  355  THR355     -0.1951
    153  CA        14.5440  -12.1440   54.0900 C.3   355  THR355      0.1897
    154  C         13.7660  -11.7260   55.2790 C.2   355  THR355      0.2313
    155  O         14.3360  -11.4840   56.3440 O.2   355  THR355     -0.2863
    156  CB        15.2700  -10.8660   53.6780 C.3   355  THR355      0.1794
    157  OG1       14.3010   -9.8940   53.2940 O.3   355  THR355     -0.2208
    158  CG2       16.2620  -11.1070   52.5720 C.3   355  THR355      0.0378
@<TRIPOS>BOND
     1    62    61    2
     2    61    60    1
     3    50    51    2
     4    50    49    1
     5    49    52    1
     6    49    48    1
     7    60    59    1
     8    60    63    1
     9    52    53    1
    10    78    77    2
    11    65    63    1
    12    48    40   am
    13    63    64    1
    14    77    76    1
    15    53    54    1
    16    70    69    2
    17    41    40    2
    18    40    39    1
    19    67    68    1
    20    54    55    1
    21    69    75   am
    22    69    68    1
    23    64    66    1
    24    76    75    1
    25    76    79    1
    26    38    39    1
    27    55    56    2
    28    39    42    1
    29    68    71    1
    30    15    14    2
    31    79    80    1
    32    57    56    1
    33    56    58    1
    34    71    72    1
    35    24    23    2
    36    23    22    1
    37    14    13    1
    38    14    21   am
    39    42    43    1
    40    13    16    1
    41    13    12    1
    42    22    21    1
    43    22    25    1
    44    73    72    2
    45    16    17    1
    46    72    74   am
    47    80    81    1
    48    83    81   ar
    49    43    45   ar
    50    43    44   ar
    51    45    47   ar
    52    17    18    1
    53    81    82   ar
    54    25    27    1
    55    25    26    1
    56    44    46   ar
    57    47    46   ar
    58    18    19   ar
    59    18    20   ar
    60   111   109   ar
    61    37    36   ar
    62    37    35   ar
    63    99    98    2
    64   110   109   ar
    65   109   108    1
    66    36    34   ar
    67   101   100    1
    68   125   124   ar
    69   125   123   ar
    70   150   149   ar
    71    35    33   ar
    72    98    97    1
    73   124   122   ar
    74   123   121   ar
    75     5     6    1
    76     5     2    1
    77    93    91   ar
    78    93    94   ar
    79     8    10   ar
    80     8     6   ar
    81   108   107    1
    82    91    89   ar
    83     3     2    1
    84     3     4    2
    85   149   151   ar
    86   149   148    1
    87    34    33   ar
    88    10    11   ar
    89     6     7   ar
    90     2     1    1
    91   100    97    1
    92   100   102    1
    93   107   104    1
    94    95    94    1
    95    33    32    1
    96   122   119   ar
    97    97    96    1
    98   121   119   ar
    99   121   120   ar
   100    94    92   ar
   101   148   145    1
   102    89    88    1
   103    89    90   ar
   104    11     9   ar
   105   119   117   ar
   106     7     9   ar
   107    88    85    1
   108   103   104    1
   109   120   118   ar
   110   140   141    1
   111   140   136   am
   112   141   142    1
   113    84    85    1
   114    28    29    1
   115   144   142   am
   116   144   145    1
   117   104   105    1
   118   129   128    2
   119   133   131   ar
   120    92    90   ar
   121   106   105    2
   122    32    29    1
   123   142   143    2
   124   139   138    1
   125   145   146    1
   126   117   118   ar
   127   117   116    1
   128    29    30    1
   129    85    86    1
   130   135   136    1
   131   135   138    1
   132   135   134    1
   133   136   137    2
   134    87    86    2
   135   131   132   ar
   136   131   130    1
   137   128   134   am
   138   128   127    1
   139   116   113    1
   140   146   147    2
   141   146   152   am
   142   158   156    1
   143   130   127    1
   144    30    31    2
   145   152   153    1
   146   127   126    1
   147   157   156    1
   148   156   153    1
   149   113   112    1
   150   113   114    1
   151   153   154    1
   152   114   115    2
   153   154   155    2
