@<TRIPOS>MOLECULE
tmp/2zunB01.pdb
 138 138 0 0 0
SMALL
GASTEIGER

@<TRIPOS>ATOM
      1  N         13.2920   -6.9530   38.6650 N.3   131  ILE131     -0.1245
      2  CA        14.5300   -6.2380   38.4460 C.3   131  ILE131      0.1561
      3  C         15.1810   -6.6920   37.1410 C.2   131  ILE131      0.2260
      4  O         15.7060   -7.7910   37.0710 O.2   131  ILE131     -0.2867
      5  CB        15.5550   -6.5470   39.5560 C.3   131  ILE131      0.0252
      6  CG1       15.0270   -6.1310   40.9300 C.3   131  ILE131      0.0019
      7  CG2       16.8510   -5.8670   39.2510 C.3   131  ILE131      0.0019
      8  CD1       15.7360   -6.8880   42.0480 C.3   131  ILE131      0.0001
      9  N         20.7890   -3.4670   41.4570 N.3   170  GLU170     -0.1245
     10  CA        21.2900   -4.7830   41.0790 C.3   170  GLU170      0.1567
     11  C         21.4890   -5.1400   39.5680 C.2   170  GLU170      0.2260
     12  O         20.7310   -5.9330   38.9990 O.2   170  GLU170     -0.2867
     13  CB        20.3510   -5.7750   41.7240 C.3   170  GLU170      0.0388
     14  CG        20.3050   -5.6500   43.2920 C.3   170  GLU170      0.1160
     15  CD        19.6840   -6.8710   43.9870 C.2   170  GLU170      0.3649
     16  OE1       19.9420   -7.0600   45.2070 O.co2 170  GLU170     -0.2457
     17  OE2       18.9360   -7.6210   43.3310 O.co2 170  GLU170     -0.2457
     18  N         26.8870   -8.7710   38.7940 N.3   224  GLN224     -0.1231
     19  CA        26.9940  -10.1240   39.3820 C.3   224  GLN224      0.1698
     20  C         28.2670  -10.6900   38.7790 C.2   224  GLN224      0.2592
     21  O         29.0890  -11.2720   39.4830 O.2   224  GLN224     -0.2718
     22  CB        25.7610  -10.9990   39.0370 C.3   224  GLN224      0.0381
     23  CG        26.0100  -12.5050   39.0200 C.3   224  GLN224      0.0905
     24  CD        24.7400  -13.2340   38.6290 C.2   224  GLN224      0.2608
     25  OE1       23.9050  -12.6760   37.9260 O.2   224  GLN224     -0.2717
     26  NE2       24.5990  -14.4930   39.0630 N.am  224  GLN224     -0.0878
     27  N         28.4580  -10.5230   37.4630 N.am  225  PHE225     -0.1976
     28  CA        29.6900  -10.9750   36.8190 C.3   225  PHE225      0.1639
     29  C         30.3120   -9.7190   36.1870 C.2   225  PHE225      0.2290
     30  O         29.6030   -8.7630   35.8810 O.2   225  PHE225     -0.2864
     31  CB        29.3800  -12.0290   35.7160 C.3   225  PHE225      0.0560
     32  CG        28.8610  -13.3350   36.2750 C.ar  225  PHE225     -0.0200
     33  CD1       29.6180  -14.0330   37.2040 C.ar  225  PHE225     -0.0042
     34  CD2       27.6100  -13.8140   35.9150 C.ar  225  PHE225     -0.0042
     35  CE1       29.1180  -15.1990   37.7860 C.ar  225  PHE225     -0.0003
     36  CE2       27.1180  -15.0100   36.4630 C.ar  225  PHE225     -0.0003
     37  CZ        27.8800  -15.6930   37.4020 C.ar  225  PHE225     -0.0000
     38  N         32.7440  -16.3250   40.8950 N.3   238  TYR238     -0.1227
     39  CA        31.4750  -16.5260   40.2000 C.3   238  TYR238      0.1736
     40  C         30.3230  -16.6550   41.1630 C.2   238  TYR238      0.2595
     41  O         29.1940  -16.9400   40.7680 O.2   238  TYR238     -0.2718
     42  CB        31.5720  -17.7650   39.3190 C.3   238  TYR238      0.0548
     43  CG        32.5930  -17.5740   38.2200 C.ar  238  TYR238     -0.0200
     44  CD1       32.2490  -16.9750   37.0080 C.ar  238  TYR238     -0.0009
     45  CD2       33.9090  -17.9640   38.4190 C.ar  238  TYR238     -0.0009
     46  CE1       33.1980  -16.7800   36.0180 C.ar  238  TYR238      0.0417
     47  CE2       34.8720  -17.7640   37.4400 C.ar  238  TYR238      0.0417
     48  CZ        34.5060  -17.1780   36.2440 C.ar  238  TYR238      0.1957
     49  OH        35.4600  -17.0020   35.2640 O.3   238  TYR238     -0.2866
     50  N         30.6150  -16.3730   42.4270 N.am  239  ASN239     -0.1960
     51  CA        29.6080  -16.4950   43.4600 C.3   239  ASN239      0.1819
     52  C         29.1400  -15.2350   44.2120 C.2   239  ASN239      0.2621
     53  O         28.6960  -15.3300   45.3550 O.2   239  ASN239     -0.2715
     54  CB        30.1150  -17.5720   44.4280 C.3   239  ASN239      0.1195
     55  CG        30.4210  -18.8870   43.7080 C.2   239  ASN239      0.2630
     56  OD1       31.5520  -19.3900   43.7300 O.2   239  ASN239     -0.2716
     57  ND2       29.4090  -19.4390   43.0620 N.am  239  ASN239     -0.0877
     58  N         29.2070  -14.0600   43.5640 N.am  240  ALA240     -0.1963
     59  CA        28.7460  -12.7920   44.1710 C.3   240  ALA240      0.1728
     60  C         27.2850  -12.5970   43.8930 C.2   240  ALA240      0.2616
     61  O         26.7380  -13.1710   42.9590 O.2   240  ALA240     -0.2715
     62  CB        29.5060  -11.6030   43.5950 C.3   240  ALA240      0.0334
     63  N         26.6540  -11.7410   44.6810 N.am  241  TRP241     -0.1960
     64  CA        25.2350  -11.4120   44.5730 C.3   241  TRP241      0.1771
     65  C         24.9300  -10.4370   43.4540 C.2   241  TRP241      0.2619
     66  O         25.8430   -9.7560   42.9520 O.2   241  TRP241     -0.2715
     67  CB        24.7940  -10.7980   45.8720 C.3   241  TRP241      0.0590
     68  CG        25.0080  -11.6640   47.0540 C.ar  241  TRP241      0.0006
     69  CD1       26.1150  -11.7310   47.8420 C.ar  241  TRP241      0.0946
     70  CD2       24.1440  -12.7130   47.4730 C.ar  241  TRP241      0.0152
     71  NE1       25.9860  -12.7720   48.7440 N.ar  241  TRP241     -0.2442
     72  CE2       24.7840  -13.3900   48.5280 C.ar  241  TRP241      0.0810
     73  CE3       22.8820  -13.1540   47.0510 C.ar  241  TRP241      0.0012
     74  CZ2       24.2050  -14.5000   49.1770 C.ar  241  TRP241      0.0191
     75  CZ3       22.3040  -14.2400   47.7030 C.ar  241  TRP241      0.0001
     76  CH2       22.9670  -14.8990   48.7510 C.ar  241  TRP241      0.0015
     77  N         23.6680  -10.3410   43.0460 N.am  242  TRP242     -0.1974
     78  CA        23.2820   -9.3640   42.0520 C.3   242  TRP242      0.1640
     79  C         23.6230   -8.0380   42.7680 C.2   242  TRP242      0.2290
     80  O         23.3430   -7.8800   43.9680 O.2   242  TRP242     -0.2864
     81  CB        21.7670   -9.3910   41.7850 C.3   242  TRP242      0.0576
     82  CG        21.2540  -10.6200   41.1140 C.ar  242  TRP242      0.0006
     83  CD1       21.9850  -11.6950   40.7010 C.ar  242  TRP242      0.0946
     84  CD2       19.8860  -10.9040   40.7980 C.ar  242  TRP242      0.0152
     85  NE1       21.1440  -12.6450   40.1560 N.ar  242  TRP242     -0.2442
     86  CE2       19.8550  -12.1790   40.2040 C.ar  242  TRP242      0.0810
     87  CE3       18.6800  -10.2070   40.9760 C.ar  242  TRP242      0.0012
     88  CZ2       18.6640  -12.7820   39.7800 C.ar  242  TRP242      0.0191
     89  CZ3       17.4910  -10.8050   40.5520 C.ar  242  TRP242      0.0001
     90  CH2       17.4990  -12.0780   39.9620 C.ar  242  TRP242      0.0015
     91  N         24.1700  -10.7920   50.8830 N.3   268  TYR268     -0.1241
     92  CA        23.1300  -11.5370   51.5550 C.3   268  TYR268      0.1605
     93  C         23.5520  -12.8410   52.2080 C.2   268  TYR268      0.2264
     94  O         24.6920  -13.2930   52.0570 O.2   268  TYR268     -0.2867
     95  CB        21.9960  -11.7660   50.5490 C.3   268  TYR268      0.0534
     96  CG        21.0540  -10.5750   50.3610 C.ar  268  TYR268     -0.0201
     97  CD1       20.1720  -10.1910   51.3760 C.ar  268  TYR268     -0.0009
     98  CD2       21.0360   -9.8280   49.1680 C.ar  268  TYR268     -0.0009
     99  CE1       19.3060   -9.1230   51.2230 C.ar  268  TYR268      0.0417
    100  CE2       20.1770   -8.7460   49.0100 C.ar  268  TYR268      0.0417
    101  CZ        19.3150   -8.4020   50.0370 C.ar  268  TYR268      0.1957
    102  OH        18.4550   -7.3550   49.8620 O.3   268  TYR268     -0.2866
    103  N         18.7420  -16.0930   51.2450 N.3   272  VAL272     -0.1231
    104  CA        18.4360  -15.5440   49.9390 C.3   272  VAL272      0.1692
    105  C         18.9300  -16.4950   48.8970 C.2   272  VAL272      0.2592
    106  O         18.3330  -16.6450   47.8440 O.2   272  VAL272     -0.2718
    107  CB        19.0290  -14.1260   49.7430 C.3   272  VAL272      0.0266
    108  CG1       18.6250  -13.5650   48.3670 C.3   272  VAL272      0.0020
    109  CG2       18.4750  -13.1880   50.8310 C.3   272  VAL272      0.0020
    110  N         20.0330  -17.1530   49.1870 N.am  273  TYR273     -0.1976
    111  CA        20.4920  -18.1140   48.2430 C.3   273  TYR273      0.1639
    112  C         21.4970  -18.9930   48.9230 C.2   273  TYR273      0.2290
    113  O         22.2940  -18.5280   49.7450 O.2   273  TYR273     -0.2864
    114  CB        21.0790  -17.4180   47.0130 C.3   273  TYR273      0.0560
    115  CG        21.4760  -18.4100   45.9570 C.ar  273  TYR273     -0.0198
    116  CD1       20.5320  -19.0160   45.1160 C.ar  273  TYR273     -0.0009
    117  CD2       22.7860  -18.8200   45.8750 C.ar  273  TYR273     -0.0009
    118  CE1       20.9260  -20.0190   44.2100 C.ar  273  TYR273      0.0417
    119  CE2       23.1850  -19.7990   45.0010 C.ar  273  TYR273      0.0417
    120  CZ        22.2700  -20.3900   44.1680 C.ar  273  TYR273      0.1957
    121  OH        22.7700  -21.3540   43.3140 O.3   273  TYR273     -0.2866
    122  N         24.4230  -20.1620   48.8790 N.3   275  GLN275     -0.1245
    123  CA        25.7690  -20.0610   48.3440 C.3   275  GLN275      0.1566
    124  C         26.5810  -21.2480   48.8140 C.2   275  GLN275      0.2260
    125  O         26.3810  -21.7650   49.9190 O.2   275  GLN275     -0.2867
    126  CB        26.4270  -18.7820   48.8280 C.3   275  GLN275      0.0367
    127  CG        25.7800  -17.5010   48.3490 C.3   275  GLN275      0.0905
    128  CD        25.8710  -17.2930   46.8440 C.2   275  GLN275      0.2608
    129  OE1       26.5390  -18.0470   46.1410 O.2   275  GLN275     -0.2717
    130  NE2       25.2080  -16.2550   46.3540 N.am  275  GLN275     -0.0878
    131  N         12.0540  -13.6040   50.9800 N.3   354  ASP354     -0.1239
    132  CA        13.1900  -14.3730   51.3900 C.3   354  ASP354      0.1674
    133  C         14.0660  -13.7890   52.4710 C.2   354  ASP354      0.2266
    134  O         15.1190  -14.3520   52.7630 O.2   354  ASP354     -0.2867
    135  CB        14.0470  -14.6770   50.1860 C.3   354  ASP354      0.1410
    136  CG        14.4560  -13.4310   49.4420 C.2   354  ASP354      0.3668
    137  OD1       15.3820  -13.5120   48.6180 O.co2 354  ASP354     -0.2456
    138  OD2       13.8480  -12.3690   49.6740 O.co2 354  ASP354     -0.2456
@<TRIPOS>BOND
     1    49    48    1
     2    31    32    1
     3    31    28    1
     4    30    29    2
     5    34    32   ar
     6    34    36   ar
     7    46    48   ar
     8    46    44   ar
     9    29    28    1
    10    48    47   ar
    11    32    33   ar
    12    36    37   ar
    13    28    27    1
    14    44    43   ar
    15     4     3    2
    16     3     2    1
    17    33    35   ar
    18    37    35   ar
    19    47    45   ar
    20    27    20   am
    21    25    24    2
    22    43    45   ar
    23    43    42    1
    24     2     1    1
    25     2     5    1
    26    24    23    1
    27    24    26   am
    28    20    19    1
    29    20    21    2
    30    18    19    1
    31    12    11    2
    32    23    22    1
    33    22    19    1
    34     7     5    1
    35    42    39    1
    36     5     6    1
    37    11    10    1
    38    88    90   ar
    39    88    86   ar
    40    90    89   ar
    41    85    86   ar
    42    85    83   ar
    43    39    38    1
    44    39    40    1
    45    86    84   ar
    46    89    87   ar
    47    83    82   ar
    48    41    40    2
    49    84    87   ar
    50    84    82   ar
    51     6     8    1
    52    10     9    1
    53    10    13    1
    54    82    81    1
    55    40    50   am
    56    13    14    1
    57    81    78    1
    58    78    79    1
    59    78    77    1
    60    50    51    1
    61    79    80    2
    62    66    65    2
    63    61    60    2
    64    77    65   am
    65    57    55   am
    66    14    15    1
    67   121   120    1
    68    17    15   ar
    69    65    64    1
    70    51    52    1
    71    51    54    1
    72    58    59    1
    73    58    52   am
    74    62    59    1
    75    55    56    2
    76    55    54    1
    77    60    59    1
    78    60    63   am
    79    15    16   ar
    80   120   118   ar
    81   120   119   ar
    82   118   116   ar
    83    52    53    2
    84    64    63    1
    85    64    67    1
    86   119   117   ar
    87   116   115   ar
    88    67    68    1
    89   117   115   ar
    90   115   114    1
    91   129   128    2
    92   130   128   am
    93   128   127    1
    94   114   111    1
    95    73    70   ar
    96    73    75   ar
    97    68    70   ar
    98    68    69   ar
    99    70    72   ar
   100    75    76   ar
   101    69    71   ar
   102   106   105    2
   103   111   112    1
   104   111   110    1
   105   123   124    1
   106   123   126    1
   107   123   122    1
   108   127   126    1
   109   108   107    1
   110    72    71   ar
   111    72    74   ar
   112   137   136   ar
   113    76    74   ar
   114   124   125    2
   115   105   110   am
   116   105   104    1
   117   112   113    2
   118   100    98   ar
   119   100   101   ar
   120    98    96   ar
   121   136   138   ar
   122   136   135    1
   123   107   104    1
   124   107   109    1
   125   102   101    1
   126   104   103    1
   127   101    99   ar
   128   135   132    1
   129    96    95    1
   130    96    97   ar
   131    95    92    1
   132    91    92    1
   133   131   132    1
   134    99    97   ar
   135   132   133    1
   136    92    93    1
   137    94    93    2
   138   133   134    2
