@<TRIPOS>MOLECULE
tmp/2zuwC00.pdb
 116 113 0 0 0
SMALL
GASTEIGER

@<TRIPOS>ATOM
      1  N        -11.6370  -16.7380   28.1920 N.3   156  VAL156     -0.1245
      2  CA       -10.9210  -17.0740   26.9590 C.3   156  VAL156      0.1561
      3  C        -11.7770  -17.9230   25.9980 C.2   156  VAL156      0.2260
      4  O        -11.8430  -17.6300   24.7950 O.2   156  VAL156     -0.2867
      5  CB        -9.5080  -17.6460   27.2350 C.3   156  VAL156      0.0252
      6  CG1       -8.9350  -18.3220   25.9930 C.3   156  VAL156      0.0019
      7  CG2       -8.5820  -16.5180   27.7220 C.3   156  VAL156      0.0019
      8  N        -14.1560  -15.5460   24.4390 N.3   159  TYR159     -0.1227
      9  CA       -13.4810  -14.8220   23.3250 C.3   159  TYR159      0.1736
     10  C        -13.3850  -15.6990   22.0750 C.2   159  TYR159      0.2595
     11  O        -13.7320  -15.2700   20.9830 O.2   159  TYR159     -0.2718
     12  CB       -12.0800  -14.3140   23.7290 C.3   159  TYR159      0.0548
     13  CG       -11.2340  -13.8860   22.5450 C.ar  159  TYR159     -0.0200
     14  CD1      -11.2960  -12.5780   22.0580 C.ar  159  TYR159     -0.0009
     15  CD2      -10.3780  -14.7940   21.9130 C.ar  159  TYR159     -0.0009
     16  CE1      -10.5290  -12.1730   20.9630 C.ar  159  TYR159      0.0417
     17  CE2       -9.5970  -14.4100   20.8270 C.ar  159  TYR159      0.0417
     18  CZ        -9.6830  -13.0900   20.3560 C.ar  159  TYR159      0.1957
     19  OH        -8.9300  -12.7020   19.2700 O.3   159  TYR159     -0.2866
     20  N        -12.9130  -16.9320   22.2330 N.am  160  ASN160     -0.1974
     21  CA       -12.8410  -17.8400   21.1030 C.3   160  ASN160      0.1688
     22  C        -14.2350  -18.1360   20.4750 C.2   160  ASN160      0.2292
     23  O        -14.3960  -18.1680   19.2530 O.2   160  ASN160     -0.2864
     24  CB       -12.0810  -19.1030   21.5080 C.3   160  ASN160      0.1181
     25  CG       -10.5810  -18.8710   21.5940 C.2   160  ASN160      0.2629
     26  OD1       -9.9480  -19.0880   22.6330 O.2   160  ASN160     -0.2716
     27  ND2      -10.0090  -18.4180   20.4980 N.am  160  ASN160     -0.0877
     28  N         -6.3410  -13.6210   33.4960 N.3   212  PHE212     -0.1241
     29  CA        -6.0670  -12.1800   33.4430 C.3   212  PHE212      0.1605
     30  C         -7.3570  -11.4150   33.1440 C.2   212  PHE212      0.2264
     31  O         -8.2130  -11.8950   32.3920 O.2   212  PHE212     -0.2867
     32  CB        -4.9120  -11.8230   32.4750 C.3   212  PHE212      0.0534
     33  CG        -5.2510  -11.9480   31.0100 C.ar  212  PHE212     -0.0203
     34  CD1       -5.9780  -10.9490   30.3600 C.ar  212  PHE212     -0.0042
     35  CD2       -4.8480  -13.0740   30.2790 C.ar  212  PHE212     -0.0042
     36  CE1       -6.2870  -11.0520   28.9990 C.ar  212  PHE212     -0.0003
     37  CE2       -5.1670  -13.1970   28.9120 C.ar  212  PHE212     -0.0003
     38  CZ        -5.9080  -12.1780   28.2840 C.ar  212  PHE212     -0.0000
     39  N        -10.3450   -9.7980   31.8490 N.3   214  LEU214     -0.1245
     40  CA       -10.9480   -9.8010   30.5230 C.3   214  LEU214      0.1561
     41  C        -12.4700   -9.7920   30.6570 C.2   214  LEU214      0.2260
     42  O        -13.1040  -10.8310   30.8650 O.2   214  LEU214     -0.2867
     43  CB       -10.4610  -11.0000   29.7120 C.3   214  LEU214      0.0270
     44  CG       -10.9390  -11.2160   28.2700 C.3   214  LEU214      0.0019
     45  CD1      -10.6110  -10.0430   27.3350 C.3   214  LEU214      0.0001
     46  CD2      -10.3440  -12.5200   27.7220 C.3   214  LEU214      0.0001
     47  N        -15.0750   -6.3560   23.8600 N.3   222  GLU222     -0.1245
     48  CA       -14.2130   -6.2720   25.0260 C.3   222  GLU222      0.1567
     49  C        -14.4440   -4.9330   25.6860 C.2   222  GLU222      0.2260
     50  O        -14.5770   -3.9130   25.0010 O.2   222  GLU222     -0.2867
     51  CB       -12.7560   -6.4440   24.6400 C.3   222  GLU222      0.0388
     52  CG       -11.8440   -6.5870   25.8070 C.3   222  GLU222      0.1160
     53  CD       -10.4240   -6.3970   25.3680 C.2   222  GLU222      0.3649
     54  OE1       -9.7100   -7.4190   25.2020 O.co2 222  GLU222     -0.2457
     55  OE2      -10.0350   -5.2220   25.1730 O.co2 222  GLU222     -0.2457
     56  N         -3.5370   -7.6900   30.6670 N.3   227  TRP227     -0.1241
     57  CA        -2.8600   -8.9910   30.6080 C.3   227  TRP227      0.1605
     58  C         -2.2770   -9.3920   31.9810 C.2   227  TRP227      0.2264
     59  O         -2.0860  -10.5840   32.2380 O.2   227  TRP227     -0.2867
     60  CB        -1.7920   -9.0160   29.5150 C.3   227  TRP227      0.0550
     61  CG        -1.2540  -10.3680   29.2210 C.ar  227  TRP227      0.0003
     62  CD1       -1.9670  -11.4620   28.8210 C.ar  227  TRP227      0.0946
     63  CD2        0.1240  -10.7810   29.2720 C.ar  227  TRP227      0.0152
     64  NE1       -1.1300  -12.5310   28.6380 N.ar  227  TRP227     -0.2442
     65  CE2        0.1610  -12.1420   28.9030 C.ar  227  TRP227      0.0810
     66  CE3        1.3330  -10.1250   29.5920 C.ar  227  TRP227      0.0012
     67  CZ2        1.3540  -12.8760   28.8550 C.ar  227  TRP227      0.0191
     68  CZ3        2.5220  -10.8490   29.5520 C.ar  227  TRP227      0.0001
     69  CH2        2.5250  -12.2160   29.1860 C.ar  227  TRP227      0.0015
     70  N          1.7890  -22.4730   30.1050 N.3   304  PHE304     -0.1227
     71  CA         1.5780  -21.4490   29.0900 C.3   304  PHE304      0.1736
     72  C          1.6690  -20.0510   29.7270 C.2   304  PHE304      0.2595
     73  O          0.9950  -19.7670   30.7260 O.2   304  PHE304     -0.2718
     74  CB         0.2340  -21.6640   28.3900 C.3   304  PHE304      0.0547
     75  CG        -0.1610  -20.5590   27.4410 C.ar  304  PHE304     -0.0202
     76  CD1        0.6410  -20.2380   26.3400 C.ar  304  PHE304     -0.0042
     77  CD2       -1.3660  -19.8790   27.6130 C.ar  304  PHE304     -0.0042
     78  CE1        0.2620  -19.2350   25.4540 C.ar  304  PHE304     -0.0003
     79  CE2       -1.7500  -18.8630   26.7320 C.ar  304  PHE304     -0.0003
     80  CZ        -0.9370  -18.5430   25.6550 C.ar  304  PHE304     -0.0000
     81  N          2.5200  -19.1890   29.1550 N.am  305  LEU305     -0.1966
     82  CA         2.6820  -17.8190   29.6640 C.3   305  LEU305      0.1728
     83  C          1.5420  -16.9720   29.1530 C.2   305  LEU305      0.2617
     84  O          1.6630  -16.2600   28.1210 O.2   305  LEU305     -0.2715
     85  CB         4.0350  -17.2090   29.2570 C.3   305  LEU305      0.0311
     86  CG         4.3300  -15.8270   29.8600 C.3   305  LEU305      0.0022
     87  CD1        4.5800  -15.9610   31.3850 C.3   305  LEU305      0.0001
     88  CD2        5.5050  -15.1580   29.1730 C.3   305  LEU305      0.0001
     89  N          0.4230  -17.0560   29.8580 N.am  306  GLY306     -0.1940
     90  CA        -0.7790  -16.3100   29.4780 C.3   306  GLY306      0.2014
     91  C         -2.0440  -16.9230   30.0480 C.2   306  GLY306      0.2638
     92  O         -1.9740  -17.8320   30.8750 O.2   306  GLY306     -0.2714
     93  N         -3.1880  -16.4370   29.5810 N.am  307  ASP307     -0.1971
     94  CA        -4.5050  -16.8670   30.0580 C.3   307  ASP307      0.1709
     95  C         -4.5400  -16.9380   31.5850 C.2   307  ASP307      0.2293
     96  O         -4.3390  -15.9120   32.2390 O.2   307  ASP307     -0.2864
     97  CB        -4.9360  -18.1790   29.3940 C.3   307  ASP307      0.1436
     98  CG        -5.1380  -18.0290   27.8780 C.2   307  ASP307      0.3671
     99  OD1       -4.9960  -16.9050   27.3270 O.co2 307  ASP307     -0.2456
    100  OD2       -5.4280  -19.0520   27.2310 O.co2 307  ASP307     -0.2456
    101  N          3.4130  -17.2520   23.4580 N.3   330  SER330     -0.1217
    102  CA         3.2260  -16.7880   22.0780 C.3   330  SER330      0.1889
    103  C          4.3050  -15.7960   21.7010 C.2   330  SER330      0.2288
    104  O          4.5790  -14.8500   22.4400 O.2   330  SER330     -0.2866
    105  CB         1.8860  -16.0820   21.8990 C.3   330  SER330      0.2089
    106  OG         0.8850  -16.7290   22.6130 O.3   330  SER330     -0.2183
    107  N         -1.7460   -8.2900   25.4430 N.3   454  HIS454     -0.1241
    108  CA        -0.4870   -8.9230   25.0290 C.3   454  HIS454      0.1621
    109  C         -0.2230   -8.7110   23.5370 C.2   454  HIS454      0.2264
    110  O         -1.1200   -8.9280   22.7110 O.2   454  HIS454     -0.2867
    111  CB        -0.4980  -10.4140   25.4080 C.3   454  HIS454      0.0745
    112  CG         0.7280  -11.1770   24.9850 C.ar  454  HIS454      0.0817
    113  ND1        0.8290  -11.7890   23.7590 N.ar  454  HIS454     -0.2268
    114  CD2        1.8830  -11.4570   25.6400 C.ar  454  HIS454      0.1154
    115  CE1        1.9940  -12.4080   23.6710 C.ar  454  HIS454      0.1986
    116  NE2        2.6490  -12.2260   24.8000 N.ar  454  HIS454     -0.2212
@<TRIPOS>BOND
     1    23    22    2
     2    19    18    1
     3    18    17   ar
     4    18    16   ar
     5    22    21    1
     6    27    25   am
     7    17    15   ar
     8    16    14   ar
     9    11    10    2
    10    21    24    1
    11    21    20    1
    12    24    25    1
    13    25    26    2
    14   103   102    1
    15   103   104    2
    16   105   102    1
    17   105   106    1
    18    15    13   ar
    19    14    13   ar
    20    10    20   am
    21    10     9    1
    22   102   101    1
    23    13    12    1
    24   110   109    2
    25     9    12    1
    26     9     8    1
    27   109   108    1
    28   115   113   ar
    29   115   116   ar
    30   113   112   ar
    31    47    48    1
    32    51    48    1
    33    51    52    1
    34     4     3    2
    35   116   114   ar
    36   112   111    1
    37   112   114   ar
    38    50    49    2
    39    48    49    1
    40   108   111    1
    41   108   107    1
    42    55    53   ar
    43    54    53   ar
    44    53    52    1
    45    78    80   ar
    46    78    76   ar
    47    80    79   ar
    48     6     5    1
    49     3     2    1
    50    76    75   ar
    51    79    77   ar
    52     2     5    1
    53     2     1    1
    54   100    98   ar
    55     5     7    1
    56    99    98   ar
    57    45    44    1
    58    75    77   ar
    59    75    74    1
    60    46    44    1
    61    98    97    1
    62    84    83    2
    63    44    43    1
    64    38    37   ar
    65    38    36   ar
    66    74    71    1
    67    64    62   ar
    68    64    65   ar
    69    62    61   ar
    70    67    65   ar
    71    67    69   ar
    72    65    63   ar
    73    37    35   ar
    74    36    34   ar
    75    71    72    1
    76    71    70    1
    77    83    82    1
    78    83    89   am
    79    81    82    1
    80    81    72   am
    81    88    86    1
    82    69    68   ar
    83    61    63   ar
    84    61    60    1
    85    85    82    1
    86    85    86    1
    87    63    66   ar
    88    97    94    1
    89    90    89    1
    90    90    91    1
    91    60    57    1
    92    68    66   ar
    93    93    91   am
    94    93    94    1
    95    43    40    1
    96    72    73    2
    97    86    87    1
    98    91    92    2
    99    94    95    1
   100    35    33   ar
   101    34    33   ar
   102    40    41    1
   103    40    39    1
   104    57    56    1
   105    57    58    1
   106    41    42    2
   107    33    32    1
   108    95    96    2
   109    58    59    2
   110    31    30    2
   111    32    29    1
   112    30    29    1
   113    29    28    1
