@<TRIPOS>MOLECULE
tmp/2zuxB02.pdb
 76 73 0 0 0
SMALL
GASTEIGER

@<TRIPOS>ATOM
      1  N         23.2050   33.4510   82.1230 N.3   102  THR102     -0.1203
      2  CA        23.6300   34.8400   82.2610 C.3   102  THR102      0.1994
      3  C         24.9400   34.9090   83.0400 C.2   102  THR102      0.2619
      4  O         25.1690   34.1170   83.9550 O.2   102  THR102     -0.2717
      5  CB        22.5650   35.7120   82.9820 C.3   102  THR102      0.1784
      6  OG1       22.1960   35.0960   84.2210 O.3   102  THR102     -0.2211
      7  CG2       21.3200   35.8930   82.1130 C.3   102  THR102      0.0376
      8  N         25.7950   35.8540   82.6610 N.am  103  THR103     -0.1939
      9  CA        27.0750   36.0740   83.3340 C.3   103  THR103      0.2013
     10  C         26.8740   36.9880   84.5480 C.2   103  THR103      0.2484
     11  O         25.7880   37.5520   84.7110 O.2   103  THR103     -0.2729
     12  CB        28.0980   36.7390   82.3890 C.3   103  THR103      0.1807
     13  OG1       27.7090   38.0970   82.1430 O.3   103  THR103     -0.2208
     14  CG2       28.2060   35.9830   81.0650 C.3   103  THR103      0.0379
     15  N         27.9110   37.1390   85.4060 N.am  104  PRO104     -0.2726
     16  CA        27.8250   38.0850   86.5310 C.3   104  PRO104      0.1402
     17  C         27.5110   39.5250   86.1200 C.2   104  PRO104      0.2269
     18  O         27.0790   40.3170   86.9620 O.2   104  PRO104     -0.2865
     19  CB        29.2250   38.0170   87.1520 C.3   104  PRO104      0.0296
     20  CG        29.7240   36.6590   86.7980 C.3   104  PRO104      0.0237
     21  CD        29.2000   36.4190   85.4090 C.3   104  PRO104      0.0939
     22  N         23.5640   34.4900   77.2640 N.3   109  TYR109     -0.1241
     23  CA        24.2250   33.6980   76.2340 C.3   109  TYR109      0.1605
     24  C         23.4360   32.4240   75.9600 C.2   109  TYR109      0.2264
     25  O         22.7010   31.9410   76.8200 O.2   109  TYR109     -0.2867
     26  CB        25.6710   33.3650   76.6350 C.3   109  TYR109      0.0534
     27  CG        25.8030   32.5400   77.8980 C.ar  109  TYR109     -0.0201
     28  CD1       25.7580   31.1440   77.8560 C.ar  109  TYR109     -0.0009
     29  CD2       25.9770   33.1560   79.1390 C.ar  109  TYR109     -0.0009
     30  CE1       25.8780   30.3820   79.0200 C.ar  109  TYR109      0.0417
     31  CE2       26.0990   32.4040   80.3050 C.ar  109  TYR109      0.0417
     32  CZ        26.0480   31.0200   80.2370 C.ar  109  TYR109      0.1957
     33  OH        26.1760   30.2720   81.3850 O.3   109  TYR109     -0.2866
     34  N         32.5890   34.5880   80.2210 N.3   147  THR147     -0.1203
     35  CA        32.0750   33.5900   79.2930 C.3   147  THR147      0.1994
     36  C         31.1690   32.6090   80.0170 C.2   147  THR147      0.2618
     37  O         31.3300   32.3510   81.2130 O.2   147  THR147     -0.2717
     38  CB        33.2230   32.7970   78.5830 C.3   147  THR147      0.1784
     39  OG1       33.9990   32.0700   79.5480 O.3   147  THR147     -0.2211
     40  CG2       34.1350   33.7270   77.8020 C.3   147  THR147      0.0376
     41  N         30.2140   32.0580   79.2810 N.am  148  GLY148     -0.1942
     42  CA        29.4120   30.9670   79.8100 C.3   148  GLY148      0.2014
     43  C         30.2180   29.6840   79.9690 C.2   148  GLY148      0.2638
     44  O         31.3290   29.5570   79.4380 O.2   148  GLY148     -0.2714
     45  N         29.6510   28.7310   80.6980 N.am  149  ASP149     -0.1971
     46  CA        30.2930   27.4450   80.9550 C.3   149  ASP149      0.1709
     47  C         30.5520   26.6800   79.6640 C.2   149  ASP149      0.2293
     48  O         29.7470   26.7270   78.7320 O.2   149  ASP149     -0.2864
     49  CB        29.3990   26.5690   81.8340 C.3   149  ASP149      0.1436
     50  CG        29.3200   27.0400   83.2780 C.2   149  ASP149      0.3671
     51  OD1       30.2010   27.7870   83.7450 O.co2 149  ASP149     -0.2456
     52  OD2       28.3560   26.6150   83.9620 O.co2 149  ASP149     -0.2456
     53  N         32.8640   24.4700   84.1320 N.3   168  GLY168     -0.1210
     54  CA        32.6350   25.3880   85.2440 C.3   168  GLY168      0.1956
     55  C         33.2410   26.7620   85.0480 C.2   168  GLY168      0.2611
     56  O         33.9160   27.0360   84.0500 O.2   168  GLY168     -0.2717
     57  N         33.0230   27.6270   86.0360 N.am  169  LYS169     -0.1979
     58  CA        33.3250   29.0520   85.9100 C.3   169  LYS169      0.1596
     59  C         34.8160   29.3650   85.8030 C.2   169  LYS169      0.2287
     60  O         35.1810   30.4640   85.3970 O.2   169  LYS169     -0.2864
     61  CB        32.7200   29.8260   87.0860 C.3   169  LYS169      0.0298
     62  CG        33.3310   29.4740   88.4340 C.3   169  LYS169      0.0038
     63  CD        32.7730   30.3460   89.5600 C.3   169  LYS169      0.0206
     64  CE        31.2700   30.1950   89.7390 C.3   169  LYS169      0.1093
     65  NZ        30.8810   28.8080   90.1320 N.3   169  LYS169     -0.1314
     66  N         37.6990   33.9790   88.4160 N.3   217  ARG217     -0.1245
     67  CA        37.4970   34.9160   87.3200 C.3   217  ARG217      0.1563
     68  C         37.9100   36.3200   87.7430 C.2   217  ARG217      0.2260
     69  O         37.4340   36.8370   88.7630 O.2   217  ARG217     -0.2867
     70  CB        36.0430   34.9150   86.8670 C.3   217  ARG217      0.0307
     71  CG        35.6040   33.5940   86.2540 C.3   217  ARG217      0.0489
     72  CD        34.1200   33.5780   85.9640 C.3   217  ARG217      0.2205
     73  NE        33.3260   33.6520   87.1870 N.pl3 217  ARG217     -0.0865
     74  CZ        31.9990   33.6040   87.2330 C.cat 217  ARG217      0.5346
     75  NH1       31.2850   33.4890   86.1230 N.pl3 217  ARG217      0.1354
     76  NH2       31.3790   33.6780   88.4040 N.pl3 217  ARG217      0.1354
@<TRIPOS>BOND
     1    24    23    1
     2    24    25    2
     3    23    26    1
     4    23    22    1
     5    26    27    1
     6    40    38    1
     7    28    27   ar
     8    28    30   ar
     9    27    29   ar
    10    38    35    1
    11    38    39    1
    12    48    47    2
    13    30    32   ar
    14    29    31   ar
    15    41    42    1
    16    41    36   am
    17    35    36    1
    18    35    34    1
    19    44    43    2
    20    47    46    1
    21    42    43    1
    22    43    45   am
    23    36    37    2
    24    32    31   ar
    25    32    33    1
    26    45    46    1
    27    46    49    1
    28    14    12    1
    29    49    50    1
    30     7     5    1
    31     1     2    1
    32    13    12    1
    33     2     5    1
    34     2     3    1
    35    12     9    1
    36     8     3   am
    37     8     9    1
    38     5     6    1
    39     3     4    2
    40    50    51   ar
    41    50    52   ar
    42     9    10    1
    43    56    55    2
    44    53    54    1
    45    10    11    2
    46    10    15   am
    47    55    54    1
    48    55    57   am
    49    60    59    2
    50    15    21    1
    51    15    16    1
    52    21    20    1
    53    59    58    1
    54    58    57    1
    55    58    61    1
    56    72    71    1
    57    72    73    1
    58    17    16    1
    59    17    18    2
    60    75    74    1
    61    71    70    1
    62    16    19    1
    63    20    19    1
    64    70    67    1
    65    61    62    1
    66    73    74    2
    67    74    76    1
    68    67    68    1
    69    67    66    1
    70    68    69    2
    71    62    63    1
    72    63    64    1
    73    64    65    1
