@<TRIPOS>MOLECULE
tmp/2zuxB01.pdb
 82 78 0 0 0
SMALL
GASTEIGER

@<TRIPOS>ATOM
      1  N         25.7580   26.7380   71.1180 N.3   112  SER112     -0.1202
      2  CA        25.7730   26.0660   69.8260 C.3   112  SER112      0.2020
      3  C         26.7420   24.8880   69.8740 C.2   112  SER112      0.2619
      4  O         27.7280   24.9000   70.6200 O.2   112  SER112     -0.2717
      5  CB        26.1320   27.0330   68.6990 C.3   112  SER112      0.2103
      6  OG        27.4210   27.5900   68.8890 O.3   112  SER112     -0.2182
      7  N         26.4300   23.8560   69.0990 N.am  113  ALA113     -0.1965
      8  CA        27.2880   22.6860   68.9880 C.3   113  ALA113      0.1728
      9  C         28.5630   23.1150   68.2800 C.2   113  ALA113      0.2616
     10  O         28.5210   23.8470   67.3020 O.2   113  ALA113     -0.2715
     11  CB        26.5830   21.5830   68.2010 C.3   113  ALA113      0.0334
     12  N         29.7070   22.6720   68.7890 N.am  114  ASN114     -0.1972
     13  CA        30.9800   23.1570   68.2840 C.3   114  ASN114      0.1688
     14  C         31.9000   21.9750   67.9240 C.2   114  ASN114      0.2292
     15  O         31.4320   21.0000   67.3380 O.2   114  ASN114     -0.2864
     16  CB        31.5640   24.1550   69.2990 C.3   114  ASN114      0.1181
     17  CG        32.6660   25.0150   68.7300 C.2   114  ASN114      0.2629
     18  OD1       33.8440   24.7030   68.9000 O.2   114  ASN114     -0.2716
     19  ND2       32.3020   26.1310   68.0910 N.am  114  ASN114     -0.0877
     20  N         29.6130   25.4620   72.7500 N.3   134  ASP134     -0.1225
     21  CA        30.1940   26.7950   72.8460 C.3   134  ASP134      0.1790
     22  C         29.1390   27.8300   73.2160 C.2   134  ASP134      0.2440
     23  O         28.1240   27.9580   72.5210 O.2   134  ASP134     -0.2733
     24  CB        30.8690   27.2000   71.5310 C.3   134  ASP134      0.1423
     25  CG        31.8370   28.3470   71.7120 C.2   134  ASP134      0.3668
     26  OD1       32.7350   28.2300   72.5620 O.co2 134  ASP134     -0.2456
     27  OD2       31.6920   29.3760   71.0100 O.co2 134  ASP134     -0.2456
     28  N         29.3810   28.5880   74.3010 N.am  135  PRO135     -0.2718
     29  CA        28.4620   29.6780   74.6160 C.3   135  PRO135      0.1535
     30  C         28.6670   30.8240   73.6330 C.2   135  PRO135      0.2599
     31  O         29.7760   31.0230   73.1280 O.2   135  PRO135     -0.2715
     32  CB        28.8860   30.0950   76.0230 C.3   135  PRO135      0.0310
     33  CG        30.3390   29.8000   76.0700 C.3   135  PRO135      0.0237
     34  CD        30.5030   28.5210   75.2580 C.3   135  PRO135      0.0939
     35  N         27.6000   31.5770   73.3720 N.am  136  SER136     -0.1950
     36  CA        27.6210   32.6390   72.3620 C.3   136  SER136      0.1924
     37  C         28.4970   33.8290   72.7430 C.2   136  SER136      0.2314
     38  O         28.7100   34.7270   71.9310 O.2   136  SER136     -0.2863
     39  CB        26.2020   33.1120   72.0540 C.3   136  SER136      0.2116
     40  OG        25.5650   33.5810   73.2290 O.3   136  SER136     -0.2180
     41  N         31.6890   33.2190   73.9850 N.3   138  SER138     -0.1217
     42  CA        33.0610   32.7200   74.0480 C.3   138  SER138      0.1889
     43  C         34.0230   33.7760   73.5060 C.2   138  SER138      0.2288
     44  O         33.6360   34.6410   72.7090 O.2   138  SER138     -0.2866
     45  CB        33.1940   31.3960   73.2970 C.3   138  SER138      0.2089
     46  OG        32.8530   31.5480   71.9310 O.3   138  SER138     -0.2183
     47  N         28.5090   25.2620   59.5970 N.3   492  ALA492     -0.1231
     48  CA        29.8550   25.1200   60.1240 C.3   492  ALA492      0.1694
     49  C         30.0060   25.9660   61.3830 C.2   492  ALA492      0.2592
     50  O         29.0790   26.6900   61.7830 O.2   492  ALA492     -0.2718
     51  CB        30.8750   25.5190   59.0800 C.3   492  ALA492      0.0304
     52  N         31.1830   25.8780   61.9990 N.am  493  ASN493     -0.1960
     53  CA        31.4330   26.4800   63.3060 C.3   493  ASN493      0.1819
     54  C         32.5870   27.4610   63.2640 C.2   493  ASN493      0.2621
     55  O         33.3410   27.5220   62.2920 O.2   493  ASN493     -0.2715
     56  CB        31.7730   25.4000   64.3410 C.3   493  ASN493      0.1195
     57  CG        30.7780   24.2660   64.3670 C.2   493  ASN493      0.2630
     58  OD1       29.5810   24.4580   64.1480 O.2   493  ASN493     -0.2716
     59  ND2       31.2680   23.0660   64.6490 N.am  493  ASN493     -0.0877
     60  N         32.7500   28.1870   64.3680 N.am  494  ASN494     -0.1958
     61  CA        33.9410   28.9810   64.6380 C.3   494  ASN494      0.1819
     62  C         34.1160   30.1800   63.7190 C.2   494  ASN494      0.2621
     63  O         35.2200   30.5070   63.2790 O.2   494  ASN494     -0.2715
     64  CB        35.1880   28.0890   64.6970 C.3   494  ASN494      0.1195
     65  CG        35.0940   27.0610   65.7920 C.2   494  ASN494      0.2630
     66  OD1       34.6560   27.3720   66.9000 O.2   494  ASN494     -0.2716
     67  ND2       35.4520   25.8200   65.4850 N.am  494  ASN494     -0.0877
     68  N         32.9960   30.8440   63.4420 N.am  495  GLY495     -0.1954
     69  CA        33.0180   32.1110   62.7140 C.3   495  GLY495      0.1869
     70  C         33.7090   31.9940   61.3670 C.2   495  GLY495      0.2309
     71  O         33.3460   31.1470   60.5550 O.2   495  GLY495     -0.2863
     72  N         26.6850   20.4050   62.4940 N.3   517  ARG517     -0.1245
     73  CA        25.4850   20.6860   63.2780 C.3   517  ARG517      0.1563
     74  C         24.3870   21.2410   62.3700 C.2   517  ARG517      0.2260
     75  O         24.6600   21.7880   61.2910 O.2   517  ARG517     -0.2867
     76  CB        25.7900   21.6970   64.3840 C.3   517  ARG517      0.0307
     77  CG        26.1940   23.0570   63.8530 C.3   517  ARG517      0.0489
     78  CD        26.3200   24.0890   64.9550 C.3   517  ARG517      0.2205
     79  NE        26.8920   25.3340   64.4590 N.pl3 517  ARG517     -0.0865
     80  CZ        26.1870   26.4140   64.1280 C.cat 517  ARG517      0.5346
     81  NH1       24.8610   26.4080   64.2290 N.pl3 517  ARG517      0.1354
     82  NH2       26.8030   27.4970   63.6810 N.pl3 517  ARG517      0.1354
@<TRIPOS>BOND
     1    51    48    1
     2    47    48    1
     3    48    49    1
     4    71    70    2
     5    75    74    2
     6    70    69    1
     7    49    50    2
     8    49    52   am
     9    52    53    1
    10    55    54    2
    11    74    73    1
    12    72    73    1
    13    69    68    1
    14    54    53    1
    15    54    60   am
    16    73    76    1
    17    63    62    2
    18    53    56    1
    19    68    62   am
    20    82    80    1
    21    62    61    1
    22    77    76    1
    23    77    78    1
    24    80    81    1
    25    80    79    2
    26    58    57    2
    27    56    57    1
    28    57    59   am
    29    60    61    1
    30    79    78    1
    31    61    64    1
    32    64    65    1
    33    67    65   am
    34    65    66    2
    35    10     9    2
    36    15    14    2
    37    14    13    1
    38    19    17   am
    39    11     8    1
    40     9    12   am
    41     9     8    1
    42    13    12    1
    43    13    16    1
    44     5     6    1
    45     5     2    1
    46    17    18    2
    47    17    16    1
    48     8     7    1
    49     7     3   am
    50     2     3    1
    51     2     1    1
    52     3     4    2
    53    27    25   ar
    54    24    25    1
    55    24    21    1
    56    25    26   ar
    57    38    37    2
    58    46    45    1
    59    39    36    1
    60    39    40    1
    61    36    37    1
    62    36    35    1
    63    23    22    2
    64    44    43    2
    65    20    21    1
    66    21    22    1
    67    31    30    2
    68    22    28   am
    69    45    42    1
    70    35    30   am
    71    43    42    1
    72    30    29    1
    73    41    42    1
    74    28    29    1
    75    28    34    1
    76    29    32    1
    77    34    33    1
    78    32    33    1
