@<TRIPOS>MOLECULE
tmp/2zv2A00.pdb
 161 154 0 0 0
SMALL
GASTEIGER

@<TRIPOS>ATOM
      1  N          6.9400   -2.3690  -28.9730 N.3    12  ILE12      -0.1231
      2  CA         6.2340   -2.0230  -27.7450 C.3    12  ILE12       0.1692
      3  C          6.4750   -3.0530  -26.6490 C.2    12  ILE12       0.2593
      4  O          6.1990   -2.8020  -25.4760 O.2    12  ILE12      -0.2718
      5  CB         4.7190   -1.8910  -27.9960 C.3    12  ILE12       0.0266
      6  CG1        4.1590   -3.2080  -28.5450 C.3    12  ILE12       0.0019
      7  CG2        4.4550   -0.7440  -28.9730 C.3    12  ILE12       0.0020
      8  CD1        2.6580   -3.1790  -28.7700 C.3    12  ILE12       0.0001
      9  N          6.9960   -4.2130  -27.0360 N.am   13  GLY13      -0.1942
     10  CA         7.2770   -5.2560  -26.0690 C.3    13  GLY13       0.2014
     11  C          8.2450   -6.2730  -26.6330 C.2    13  GLY13       0.2638
     12  O          8.5270   -6.2700  -27.8300 O.2    13  GLY13      -0.2714
     13  N          8.7620   -7.1440  -25.7730 N.am   14  LYS14      -0.1977
     14  CA         9.6960   -8.1730  -26.2070 C.3    14  LYS14       0.1596
     15  C          9.6690   -9.3660  -25.2630 C.2    14  LYS14       0.2287
     16  O         10.2010   -9.2990  -24.1580 O.2    14  LYS14      -0.2864
     17  CB        11.1190   -7.6120  -26.2850 C.3    14  LYS14       0.0298
     18  CG        12.1420   -8.6510  -26.7080 C.3    14  LYS14       0.0038
     19  CD        13.4760   -8.0320  -27.0860 C.3    14  LYS14       0.0206
     20  CE        14.3960   -9.0830  -27.7030 C.3    14  LYS14       0.1093
     21  NZ        15.6330   -8.4950  -28.2920 N.3    14  LYS14      -0.1314
     22  N          7.4380   -7.7480  -30.0460 N.3    18  VAL18      -0.1245
     23  CA         6.0950   -7.3150  -30.4250 C.3    18  VAL18       0.1561
     24  C          6.1340   -5.8730  -30.8930 C.2    18  VAL18       0.2260
     25  O          6.8020   -5.0390  -30.2950 O.2    18  VAL18      -0.2867
     26  CB         5.0990   -7.4090  -29.2530 C.3    18  VAL18       0.0252
     27  CG1        3.7200   -6.9780  -29.7300 C.3    18  VAL18       0.0019
     28  CG2        5.0610   -8.8290  -28.7070 C.3    18  VAL18       0.0019
     29  N         -1.4050   -5.5790  -32.2680 N.3    31  ALA31      -0.1245
     30  CA        -0.0980   -5.9230  -31.7230 C.3    31  ALA31       0.1562
     31  C          0.4340   -7.0590  -32.6010 C.2    31  ALA31       0.2260
     32  O         -0.2240   -8.0880  -32.7790 O.2    31  ALA31      -0.2867
     33  CB        -0.2240   -6.3740  -30.2840 C.3    31  ALA31       0.0290
     34  N          3.3230   -9.7890  -33.1490 N.3    33  LYS33      -0.1245
     35  CA         4.4140  -10.5480  -32.5590 C.3    33  LYS33       0.1561
     36  C          5.2070  -11.0760  -33.7540 C.2    33  LYS33       0.2260
     37  O          4.6700  -11.8120  -34.5870 O.2    33  LYS33      -0.2867
     38  CB         3.8610  -11.7040  -31.7260 C.3    33  LYS33       0.0271
     39  CG         4.8840  -12.4240  -30.8570 C.3    33  LYS33       0.0035
     40  CD         4.1940  -13.5190  -30.0560 C.3    33  LYS33       0.0206
     41  CE         5.0880  -14.1170  -29.0000 C.3    33  LYS33       0.1093
     42  NZ         4.3440  -15.1540  -28.2250 N.3    33  LYS33      -0.1314
     43  N          1.6240  -22.7550  -29.3300 N.3    44  GLU44      -0.1245
     44  CA         1.1780  -21.5040  -28.7350 C.3    44  GLU44       0.1567
     45  C         -0.0420  -21.0380  -29.5180 C.2    44  GLU44       0.2260
     46  O         -1.0770  -20.6780  -28.9400 O.2    44  GLU44      -0.2867
     47  CB         2.2710  -20.4390  -28.8350 C.3    44  GLU44       0.0388
     48  CG         1.9360  -19.1530  -28.0910 C.3    44  GLU44       0.1160
     49  CD         2.8600  -17.9960  -28.4290 C.2    44  GLU44       0.3649
     50  OE1        4.0730  -18.2180  -28.6210 O.co2  44  GLU44      -0.2457
     51  OE2        2.3710  -16.8500  -28.4830 O.co2  44  GLU44      -0.2457
     52  N         -5.5060  -12.4410  -23.6390 N.3    57  VAL57      -0.1245
     53  CA        -5.3140  -11.7830  -24.9240 C.3    57  VAL57       0.1561
     54  C         -6.0410  -12.5590  -26.0120 C.2    57  VAL57       0.2260
     55  O         -6.4190  -13.7100  -25.8120 O.2    57  VAL57      -0.2867
     56  CB        -3.8260  -11.6470  -25.2850 C.3    57  VAL57       0.0252
     57  CG1       -3.1560  -10.6780  -24.3110 C.3    57  VAL57       0.0019
     58  CG2       -3.1420  -13.0200  -25.2670 C.3    57  VAL57       0.0019
     59  N         -2.4190   -9.8350  -32.7080 N.3    75  PHE75      -0.1227
     60  CA        -3.3400   -9.8900  -31.5810 C.3    75  PHE75       0.1736
     61  C         -4.0720   -8.5610  -31.5050 C.2    75  PHE75       0.2595
     62  O         -3.6400   -7.5700  -32.0890 O.2    75  PHE75      -0.2718
     63  CB        -2.5780  -10.0230  -30.2650 C.3    75  PHE75       0.0547
     64  CG        -1.7970  -11.2880  -30.1070 C.ar   75  PHE75      -0.0202
     65  CD1       -2.3040  -12.3390  -29.3440 C.ar   75  PHE75      -0.0042
     66  CD2       -0.5110  -11.3910  -30.6190 C.ar   75  PHE75      -0.0042
     67  CE1       -1.5340  -13.4690  -29.0810 C.ar   75  PHE75      -0.0003
     68  CE2        0.2710  -12.5210  -30.3640 C.ar   75  PHE75      -0.0003
     69  CZ        -0.2420  -13.5610  -29.5890 C.ar   75  PHE75      -0.0000
     70  N         -5.1740   -8.5390  -30.7690 N.am   76  GLU76      -0.1965
     71  CA        -5.8850   -7.2990  -30.5530 C.3    76  GLU76       0.1733
     72  C         -4.9530   -6.5680  -29.5890 C.2    76  GLU76       0.2616
     73  O         -4.3420   -7.1900  -28.7150 O.2    76  GLU76      -0.2715
     74  CB        -7.2250   -7.5490  -29.8730 C.3    76  GLU76       0.0429
     75  CG        -8.1120   -8.5200  -30.6120 C.3    76  GLU76       0.1163
     76  CD        -9.5570   -8.3760  -30.2090 C.2    76  GLU76       0.3649
     77  OE1       -9.8210   -8.2510  -28.9930 O.co2  76  GLU76      -0.2457
     78  OE2      -10.4250   -8.3870  -31.1070 O.co2  76  GLU76      -0.2457
     79  N         -4.8330   -5.2600  -29.7540 N.am   77  LEU77      -0.1963
     80  CA        -3.9550   -4.4590  -28.9170 C.3    77  LEU77       0.1728
     81  C         -4.5110   -4.2370  -27.5070 C.2    77  LEU77       0.2616
     82  O         -5.6920   -3.9370  -27.3430 O.2    77  LEU77      -0.2715
     83  CB        -3.7210   -3.1090  -29.6020 C.3    77  LEU77       0.0311
     84  CG        -2.7670   -2.0910  -28.9770 C.3    77  LEU77       0.0022
     85  CD1       -1.3320   -2.6310  -29.0100 C.3    77  LEU77       0.0001
     86  CD2       -2.8670   -0.7730  -29.7540 C.3    77  LEU77       0.0001
     87  N         -3.6600   -4.4100  -26.4960 N.am   78  VAL78      -0.1963
     88  CA        -4.0520   -4.1680  -25.1060 C.3    78  VAL78       0.1727
     89  C         -3.2300   -2.9080  -24.7960 C.2    78  VAL78       0.2616
     90  O         -2.1640   -2.9600  -24.1800 O.2    78  VAL78      -0.2715
     91  CB        -3.6560   -5.3560  -24.2080 C.3    78  VAL78       0.0290
     92  CG1       -4.2720   -5.2030  -22.8250 C.3    78  VAL78       0.0023
     93  CG2       -4.1290   -6.6490  -24.8510 C.3    78  VAL78       0.0023
     94  N         -3.7670   -1.7850  -25.2730 N.am   79  ASN79      -0.1958
     95  CA        -3.1590   -0.4550  -25.2360 C.3    79  ASN79       0.1819
     96  C         -2.3300    0.0840  -24.0740 C.2    79  ASN79       0.2621
     97  O         -1.2910    0.6770  -24.3210 O.2    79  ASN79      -0.2715
     98  CB        -4.2080    0.5980  -25.6420 C.3    79  ASN79       0.1195
     99  CG        -5.1160    1.0080  -24.4990 C.2    79  ASN79       0.2630
    100  OD1       -5.8790    0.2040  -23.9690 O.2    79  ASN79      -0.2716
    101  ND2       -5.0420    2.2810  -24.1220 N.am   79  ASN79      -0.0877
    102  N         -2.7410   -0.1070  -22.8270 N.am   80  GLN80      -0.1963
    103  CA        -1.9470    0.4380  -21.7290 C.3    80  GLN80       0.1733
    104  C         -0.6860   -0.3360  -21.3160 C.2    80  GLN80       0.2617
    105  O          0.0660    0.1130  -20.4520 O.2    80  GLN80      -0.2715
    106  CB        -2.8440    0.6820  -20.5180 C.3    80  GLN80       0.0408
    107  CG        -4.0300    1.5450  -20.8700 C.3    80  GLN80       0.0908
    108  CD        -4.6780    2.1540  -19.6610 C.2    80  GLN80       0.2608
    109  OE1       -4.0400    2.8920  -18.9160 O.2    80  GLN80      -0.2717
    110  NE2       -5.9530    1.8540  -19.4550 N.am   80  GLN80      -0.0878
    111  N         -0.4470   -1.4900  -21.9260 N.am   81  GLY81      -0.1941
    112  CA         0.7490   -2.2510  -21.5990 C.3    81  GLY81       0.1998
    113  C          0.8330   -2.9080  -20.2270 C.2    81  GLY81       0.2480
    114  O         -0.1470   -2.9430  -19.4740 O.2    81  GLY81      -0.2729
    115  N          2.0210   -3.4380  -19.8740 N.am   82  PRO82      -0.2726
    116  CA         2.2900   -4.1120  -18.6020 C.3    82  PRO82       0.1402
    117  C          1.7540   -3.3530  -17.4050 C.2    82  PRO82       0.2269
    118  O          1.9580   -2.1490  -17.2860 O.2    82  PRO82      -0.2865
    119  CB         3.8110   -4.2230  -18.5860 C.3    82  PRO82       0.0296
    120  CG         4.1460   -4.3740  -20.0400 C.3    82  PRO82       0.0237
    121  CD         3.2620   -3.3140  -20.6640 C.3    82  PRO82       0.0939
    122  N          3.6100   -9.7880  -17.9150 N.3   125  ASN125     -0.1240
    123  CA         2.7750  -10.4950  -18.8750 C.3   125  ASN125      0.1653
    124  C          1.2860  -10.2280  -18.6460 C.2   125  ASN125      0.2266
    125  O          0.4320  -10.8830  -19.2400 O.2   125  ASN125     -0.2867
    126  CB         3.0530  -12.0030  -18.8410 C.3   125  ASN125      0.1155
    127  CG         4.3730  -12.3610  -19.4980 C.2   125  ASN125      0.2627
    128  OD1        4.8940  -11.6080  -20.3230 O.2   125  ASN125     -0.2716
    129  ND2        4.9130  -13.5170  -19.1470 N.am  125  ASN125     -0.0877
    130  N         -1.1810   -7.3790  -19.2090 N.3   127  LEU127     -0.1245
    131  CA        -1.4060   -6.1010  -19.8710 C.3   127  LEU127      0.1561
    132  C         -2.7210   -5.4580  -19.4500 C.2   127  LEU127      0.2260
    133  O         -3.7170   -6.1480  -19.2320 O.2   127  LEU127     -0.2867
    134  CB        -1.3950   -6.3100  -21.3850 C.3   127  LEU127      0.0270
    135  CG        -0.3140   -7.2770  -21.8870 C.3   127  LEU127      0.0019
    136  CD1       -0.4310   -7.4390  -23.3890 C.3   127  LEU127      0.0001
    137  CD2        1.0620   -6.7670  -21.5030 C.3   127  LEU127      0.0001
    138  N         -1.1310  -12.3780  -21.0020 N.3   137  ALA137     -0.1231
    139  CA        -0.4650  -12.4720  -22.2900 C.3   137  ALA137      0.1694
    140  C          0.7080  -13.4470  -22.2810 C.2   137  ALA137      0.2592
    141  O          1.0750  -13.9890  -21.2370 O.2   137  ALA137     -0.2718
    142  CB         0.0200  -11.0950  -22.7050 C.3   137  ALA137      0.0304
    143  N          1.2760  -13.6670  -23.4660 N.am  138  ASP138     -0.1960
    144  CA         2.4400  -14.5340  -23.6620 C.3   138  ASP138      0.1840
    145  C          2.3120  -16.0020  -23.2480 C.2   138  ASP138      0.2622
    146  O          2.8340  -16.4200  -22.2150 O.2   138  ASP138     -0.2715
    147  CB         3.6520  -13.9060  -22.9740 C.3   138  ASP138      0.1450
    148  CG         4.9510  -14.5760  -23.3560 C.2   138  ASP138      0.3671
    149  OD1        4.9980  -15.2210  -24.4270 O.co2 138  ASP138     -0.2456
    150  OD2        5.9300  -14.4430  -22.5910 O.co2 138  ASP138     -0.2456
    151  N          1.6330  -16.7770  -24.0840 N.am  139  PHE139     -0.1974
    152  CA         1.4280  -18.2090  -23.8600 C.3   139  PHE139      0.1639
    153  C          2.5130  -19.0010  -24.5820 C.2   139  PHE139      0.2290
    154  O          2.3290  -20.1720  -24.8970 O.2   139  PHE139     -0.2864
    155  CB         0.0520  -18.6400  -24.3960 C.3   139  PHE139      0.0560
    156  CG        -1.1030  -18.1070  -23.6030 C.ar  139  PHE139     -0.0200
    157  CD1       -1.3770  -16.7430  -23.5770 C.ar  139  PHE139     -0.0042
    158  CD2       -1.9020  -18.9670  -22.8550 C.ar  139  PHE139     -0.0042
    159  CE1       -2.4320  -16.2410  -22.8130 C.ar  139  PHE139     -0.0003
    160  CE2       -2.9510  -18.4820  -22.0920 C.ar  139  PHE139     -0.0003
    161  CZ        -3.2210  -17.1130  -22.0680 C.ar  139  PHE139     -0.0000
@<TRIPOS>BOND
     1    37    36    2
     2    36    35    1
     3    34    35    1
     4    32    31    2
     5    59    60    1
     6    31    30    1
     7    35    38    1
     8    29    30    1
     9    62    61    2
    10    38    39    1
    11    30    33    1
    12    60    61    1
    13    60    63    1
    14    61    70   am
    15    78    76   ar
    16    24    23    1
    17    24    25    2
    18    39    40    1
    19    70    71    1
    20    66    68   ar
    21    66    64   ar
    22    75    76    1
    23    75    74    1
    24    71    74    1
    25    71    72    1
    26    23    22    1
    27    23    26    1
    28    68    69   ar
    29    63    64    1
    30    76    77   ar
    31    64    65   ar
    32    40    41    1
    33    86    84    1
    34    79    72   am
    35    79    80    1
    36    27    26    1
    37    83    84    1
    38    83    80    1
    39    69    67   ar
    40    72    73    2
    41    45    46    2
    42    45    44    1
    43    65    67   ar
    44    43    44    1
    45    26    28    1
    46    85    84    1
    47    41    42    1
    48     1     2    1
    49     7     5    1
    50    80    81    1
    51    47    44    1
    52    47    48    1
    53     8     6    1
    54    50    49   ar
    55     6     5    1
    56    51    49   ar
    57    49    48    1
    58    21    20    1
    59     5     2    1
    60    12    11    2
    61     2     3    1
    62    20    19    1
    63    81    82    2
    64    81    87   am
    65    19    18    1
    66     9     3   am
    67     9    10    1
    68    18    17    1
    69     3     4    2
    70    11    10    1
    71    11    13   am
    72    87    88    1
    73    17    14    1
    74    14    13    1
    75    14    15    1
    76    54    55    2
    77    54    53    1
    78    98    95    1
    79    98    99    1
    80    56    58    1
    81    56    53    1
    82    56    57    1
    83    94    95    1
    84    94    89   am
    85    15    16    2
    86    95    96    1
    87    88    89    1
    88    88    91    1
    89    53    52    1
    90   154   153    2
    91    93    91    1
    92    89    90    2
    93   153   152    1
    94    99   101   am
    95    99   100    2
    96   149   148   ar
    97   155   152    1
    98   155   156    1
    99    97    96    2
   100    91    92    1
   101   151   152    1
   102   151   145   am
   103    96   102   am
   104   144   143    1
   105   144   145    1
   106   144   147    1
   107   156   157   ar
   108   156   158   ar
   109   157   159   ar
   110   143   140   am
   111   136   135    1
   112   148   147    1
   113   148   150   ar
   114   145   146    2
   115   158   160   ar
   116   102   103    1
   117   159   161   ar
   118   142   139    1
   119   139   140    1
   120   139   138    1
   121   140   141    2
   122   160   161   ar
   123   111   112    1
   124   111   104   am
   125   135   137    1
   126   135   134    1
   127   103   104    1
   128   103   106    1
   129   112   113    1
   130   134   131    1
   131   104   105    2
   132   107   106    1
   133   107   108    1
   134   121   120    1
   135   121   115    1
   136   128   127    2
   137   113   115   am
   138   113   114    2
   139   120   119    1
   140   115   116    1
   141   131   132    1
   142   131   130    1
   143   108   110   am
   144   108   109    2
   145   127   129   am
   146   127   126    1
   147   132   133    2
   148   125   124    2
   149   123   126    1
   150   123   124    1
   151   123   122    1
   152   116   119    1
   153   116   117    1
   154   117   118    2
