@<TRIPOS>MOLECULE
tmp/2zvaA00.pdb
 180 170 0 0 0
SMALL
GASTEIGER

@<TRIPOS>ATOM
      1  N         15.3820  -20.7070   27.4510 N.3    14  LYS14      -0.1245
      2  CA        16.2150  -20.6940   26.2390 C.3    14  LYS14       0.1561
      3  C         17.4560  -19.8070   26.4050 C.2    14  LYS14       0.2260
      4  O         17.3480  -18.6350   26.7770 O.2    14  LYS14      -0.2867
      5  CB        15.3790  -20.2280   25.0350 C.3    14  LYS14       0.0271
      6  CG        16.1110  -20.2250   23.6860 C.3    14  LYS14       0.0035
      7  CD        15.3880  -19.3710   22.6350 C.3    14  LYS14       0.0206
      8  CE        14.1910  -20.0950   22.0290 C.3    14  LYS14       0.1093
      9  NZ        13.4830  -19.2670   21.0090 N.3    14  LYS14      -0.1314
     10  N         20.3600  -17.4930   25.2370 N.3    16  LEU16      -0.1231
     11  CA        20.4100  -16.4930   24.1670 C.3    16  LEU16       0.1693
     12  C         21.8280  -16.0340   23.8330 C.2    16  LEU16       0.2592
     13  O         22.1130  -15.6620   22.6960 O.2    16  LEU16      -0.2718
     14  CB        19.5490  -15.2750   24.5330 C.3    16  LEU16       0.0284
     15  CG        18.0550  -15.4600   24.8310 C.3    16  LEU16       0.0019
     16  CD1       17.4880  -14.1930   25.4530 C.3    16  LEU16       0.0001
     17  CD2       17.2640  -15.8450   23.5860 C.3    16  LEU16       0.0001
     18  N         22.7030  -16.0460   24.8330 N.am   17  GLY17      -0.1957
     19  CA        24.0900  -15.6310   24.6550 C.3    17  GLY17       0.1869
     20  C         24.9900  -16.1260   25.7700 C.2    17  GLY17       0.2309
     21  O         24.5290  -16.3870   26.8840 O.2    17  GLY17      -0.2863
     22  N         23.0610  -15.2730   29.2020 N.3    24  VAL24      -0.1245
     23  CA        21.7910  -14.5550   29.1000 C.3    24  VAL24       0.1561
     24  C         20.6960  -15.5280   28.6750 C.2    24  VAL24       0.2260
     25  O         20.8570  -16.2700   27.7040 O.2    24  VAL24      -0.2867
     26  CB        21.8410  -13.3710   28.0980 C.3    24  VAL24       0.0252
     27  CG1       20.6850  -12.4140   28.3510 C.3    24  VAL24       0.0019
     28  CG2       23.1540  -12.6160   28.1990 C.3    24  VAL24       0.0019
     29  N         14.0610  -11.4500   30.8020 N.3    36  ALA36      -0.1231
     30  CA        15.4210  -11.8300   30.4290 C.3    36  ALA36       0.1694
     31  C         16.2780  -11.9400   31.6880 C.2    36  ALA36       0.2592
     32  O         16.2010  -11.0850   32.5720 O.2    36  ALA36      -0.2718
     33  CB        16.0130  -10.8230   29.4710 C.3    36  ALA36       0.0304
     34  N         17.0810  -12.9990   31.7700 N.am   37  VAL37      -0.1966
     35  CA        17.9010  -13.2650   32.9540 C.3    37  VAL37       0.1727
     36  C         19.3800  -13.2860   32.5860 C.2    37  VAL37       0.2616
     37  O         19.7860  -14.0290   31.6890 O.2    37  VAL37      -0.2715
     38  CB        17.5370  -14.6190   33.6280 C.3    37  VAL37       0.0290
     39  CG1       18.2980  -14.7940   34.9380 C.3    37  VAL37       0.0023
     40  CG2       16.0400  -14.7320   33.8710 C.3    37  VAL37       0.0023
     41  N         20.1760  -12.4660   33.2680 N.am   38  LYS38      -0.1977
     42  CA        21.6300  -12.5280   33.1380 C.3    38  LYS38       0.1596
     43  C         22.2170  -13.3170   34.3090 C.2    38  LYS38       0.2287
     44  O         21.9350  -13.0200   35.4740 O.2    38  LYS38      -0.2864
     45  CB        22.2450  -11.1280   33.0620 C.3    38  LYS38       0.0298
     46  CG        23.6750  -11.1030   32.5240 C.3    38  LYS38       0.0038
     47  CD        24.3400   -9.7410   32.7070 C.3    38  LYS38       0.0206
     48  CE        23.8910   -8.7230   31.6600 C.3    38  LYS38       0.1093
     49  NZ        24.7070   -7.4690   31.7210 N.3    38  LYS38      -0.1314
     50  N         25.8120   -3.0500   38.0450 N.3    53  GLU53      -0.1245
     51  CA        24.9210   -2.7330   36.9340 C.3    53  GLU53       0.1567
     52  C         23.4670   -2.5900   37.3840 C.2    53  GLU53       0.2260
     53  O         22.8130   -1.5950   37.0760 O.2    53  GLU53      -0.2867
     54  CB        25.0210   -3.8040   35.8530 C.3    53  GLU53       0.0388
     55  CG        24.0840   -3.5740   34.6880 C.3    53  GLU53       0.1160
     56  CD        24.3320   -4.5310   33.5450 C.2    53  GLU53       0.3649
     57  OE1       24.7930   -5.6670   33.8000 O.co2  53  GLU53      -0.2457
     58  OE2       24.0650   -4.1420   32.3860 O.co2  53  GLU53      -0.2457
     59  N         20.7060    0.4540   37.6690 N.3    57  MET57      -0.1245
     60  CA        19.4160    0.3590   36.9720 C.3    57  MET57       0.1570
     61  C         18.2320    0.5950   37.9100 C.2    57  MET57       0.2261
     62  O         17.1660    1.0110   37.4670 O.2    57  MET57      -0.2867
     63  CB        19.2660   -0.9790   36.2360 C.3    57  MET57       0.0387
     64  CG        20.3270   -1.2280   35.1720 C.3    57  MET57       0.0595
     65  SD        20.0240   -2.6380   34.0800 S.3    57  MET57      -0.1393
     66  CE        19.8250   -3.9740   35.2510 C.3    57  MET57       0.0692
     67  N         16.0360   -0.3170   29.0260 N.3    66  VAL66      -0.1245
     68  CA        15.6200   -1.6500   29.4610 C.3    66  VAL66       0.1561
     69  C         15.4410   -1.6290   30.9750 C.2    66  VAL66       0.2260
     70  O         16.3530   -1.2550   31.7120 O.2    66  VAL66      -0.2867
     71  CB        16.6350   -2.7300   29.0220 C.3    66  VAL66       0.0252
     72  CG1       16.2650   -4.0930   29.5780 C.3    66  VAL66       0.0019
     73  CG2       16.7090   -2.7880   27.5060 C.3    66  VAL66       0.0019
     74  N         20.3080  -11.3810   37.3400 N.3    80  ILE80      -0.1245
     75  CA        19.7000  -10.0640   37.1090 C.3    80  ILE80       0.1561
     76  C         18.5250  -10.2230   36.1330 C.2    80  ILE80       0.2260
     77  O         18.7070  -10.6560   34.9910 O.2    80  ILE80      -0.2867
     78  CB        20.7000   -9.0180   36.5570 C.3    80  ILE80       0.0252
     79  CG1       21.8110   -8.7300   37.5670 C.3    80  ILE80       0.0019
     80  CG2       19.9840   -7.7140   36.2210 C.3    80  ILE80       0.0019
     81  CD1       22.9620   -7.9060   36.9900 C.3    80  ILE80       0.0001
     82  N         15.3660   -8.6580   33.9720 N.3    82  THR82      -0.1203
     83  CA        14.8780   -7.4370   33.3440 C.3    82  THR82       0.1994
     84  C         13.7380   -7.6660   32.3600 C.2    82  THR82       0.2618
     85  O         13.4210   -8.8030   31.9810 O.2    82  THR82      -0.2717
     86  CB        15.9950   -6.6760   32.5700 C.3    82  THR82       0.1784
     87  OG1       16.3800   -7.4300   31.4160 O.3    82  THR82      -0.2211
     88  CG2       17.2090   -6.3930   33.4490 C.3    82  THR82       0.0376
     89  N         13.1320   -6.5490   31.9650 N.am   83  GLU83      -0.1965
     90  CA        12.2400   -6.4470   30.8170 C.3    83  GLU83       0.1733
     91  C         12.8250   -7.1810   29.6130 C.2    83  GLU83       0.2616
     92  O         14.0110   -7.0370   29.3140 O.2    83  GLU83      -0.2715
     93  CB        12.0560   -4.9630   30.5070 C.3    83  GLU83       0.0429
     94  CG        11.2960   -4.6130   29.2510 C.3    83  GLU83       0.1163
     95  CD        11.4650   -3.1500   28.8800 C.2    83  GLU83       0.3649
     96  OE1       12.0900   -2.3860   29.6540 O.co2  83  GLU83      -0.2457
     97  OE2       10.9640   -2.7650   27.8090 O.co2  83  GLU83      -0.2457
     98  N         11.9930   -7.9780   28.9410 N.am   84  PHE84      -0.1960
     99  CA        12.4410   -8.7710   27.7960 C.3    84  PHE84       0.1771
    100  C         12.2090   -8.0570   26.4670 C.2    84  PHE84       0.2619
    101  O         11.1220   -7.5320   26.2040 O.2    84  PHE84      -0.2715
    102  CB        11.7850  -10.1580   27.7850 C.3    84  PHE84       0.0574
    103  CG        12.2290  -11.0300   26.6370 C.ar   84  PHE84      -0.0200
    104  CD1       13.5280  -11.5250   26.5790 C.ar   84  PHE84      -0.0042
    105  CD2       11.3490  -11.3520   25.6120 C.ar   84  PHE84      -0.0042
    106  CE1       13.9430  -12.3260   25.5130 C.ar   84  PHE84      -0.0003
    107  CE2       11.7510  -12.1550   24.5440 C.ar   84  PHE84      -0.0003
    108  CZ        13.0500  -12.6400   24.4930 C.ar   84  PHE84      -0.0000
    109  N         13.2490   -8.0550   25.6380 N.am   85  MET85      -0.1963
    110  CA        13.2140   -7.4300   24.3250 C.3    85  MET85       0.1736
    111  C         13.2950   -8.5200   23.2690 C.2    85  MET85       0.2616
    112  O         14.3230   -9.1890   23.1330 O.2    85  MET85      -0.2715
    113  CB        14.3760   -6.4540   24.1870 C.3    85  MET85       0.0427
    114  CG        14.4400   -5.4060   25.2980 C.3    85  MET85       0.0599
    115  SD        13.0580   -4.2470   25.2500 S.3    85  MET85      -0.1393
    116  CE        13.3700   -3.3760   23.7210 C.3    85  MET85       0.0692
    117  N         12.2050   -8.6920   22.5240 N.am   86  ALA86      -0.1963
    118  CA        12.0230   -9.8610   21.6570 C.3    86  ALA86       0.1728
    119  C         13.0220   -9.9830   20.5020 C.2    86  ALA86       0.2616
    120  O         13.4910  -11.0770   20.2120 O.2    86  ALA86      -0.2715
    121  CB        10.5840   -9.9280   21.1370 C.3    86  ALA86       0.0334
    122  N         13.3540   -8.8650   19.8620 N.am   87  LYS87      -0.1963
    123  CA        14.1580   -8.8910   18.6350 C.3    87  LYS87       0.1728
    124  C         15.6800   -8.9440   18.8510 C.2    87  LYS87       0.2617
    125  O         16.4430   -8.9430   17.8820 O.2    87  LYS87      -0.2715
    126  CB        13.7970   -7.7090   17.7200 C.3    87  LYS87       0.0311
    127  CG        12.3220   -7.5930   17.3450 C.3    87  LYS87       0.0038
    128  CD        11.9440   -8.5430   16.2350 C.3    87  LYS87       0.0206
    129  CE        10.6630   -8.0970   15.5570 C.3    87  LYS87       0.1093
    130  NZ        10.2750   -9.0350   14.4720 N.3    87  LYS87      -0.1314
    131  N         16.1220   -8.9930   20.1050 N.am   88  GLY88      -0.1940
    132  CA        17.5560   -9.0120   20.4060 C.3    88  GLY88       0.2014
    133  C         18.1980   -7.6550   20.1940 C.2    88  GLY88       0.2639
    134  O         17.5080   -6.6300   20.2040 O.2    88  GLY88      -0.2714
    135  N         19.5170   -7.6390   20.0030 N.am   89  SER89      -0.1949
    136  CA        20.2520   -6.3780   19.8550 C.3    89  SER89       0.1924
    137  C         19.9370   -5.6940   18.5290 C.2    89  SER89       0.2314
    138  O         19.5900   -6.3640   17.5500 O.2    89  SER89      -0.2863
    139  CB        21.7630   -6.5920   20.0120 C.3    89  SER89       0.2116
    140  OG        22.3310   -7.1440   18.8360 O.3    89  SER89      -0.2180
    141  N         22.4590   -6.8120   15.6550 N.3    92  ASP92      -0.1239
    142  CA        22.1490   -8.1040   15.0510 C.3    92  ASP92       0.1674
    143  C         20.9010   -8.0020   14.1910 C.2    92  ASP92       0.2266
    144  O         20.8170   -8.6150   13.1210 O.2    92  ASP92      -0.2867
    145  CB        21.9650   -9.1800   16.1280 C.3    92  ASP92       0.1410
    146  CG        23.2770   -9.5990   16.7770 C.2    92  ASP92       0.3668
    147  OD1       24.3540   -9.3650   16.1880 O.co2  92  ASP92      -0.2456
    148  OD2       23.2300  -10.1730   17.8830 O.co2  92  ASP92      -0.2456
    149  N         18.5580   -2.6750   22.4220 N.3   137  LEU137     -0.1245
    150  CA        17.7370   -3.8550   22.1770 C.3   137  LEU137      0.1561
    151  C         16.4070   -3.4830   21.5390 C.2   137  LEU137      0.2260
    152  O         15.8840   -2.3940   21.7750 O.2   137  LEU137     -0.2867
    153  CB        17.5240   -4.6440   23.4690 C.3   137  LEU137      0.0270
    154  CG        18.7550   -5.2770   24.1210 C.3   137  LEU137      0.0019
    155  CD1       18.4410   -5.6200   25.5530 C.3   137  LEU137      0.0001
    156  CD2       19.2230   -6.5150   23.3790 C.3   137  LEU137      0.0001
    157  N         20.5600   -0.6110   26.5530 N.3   147  ALA147     -0.1231
    158  CA        20.8970   -1.7480   27.3950 C.3   147  ALA147      0.1694
    159  C         22.2990   -1.5770   27.9810 C.2   147  ALA147      0.2592
    160  O         22.9050   -0.5060   27.8690 O.2   147  ALA147     -0.2718
    161  CB        20.8110   -3.0280   26.5810 C.3   147  ALA147      0.0304
    162  N         22.7930   -2.6330   28.6230 N.am  148  ASP148     -0.1960
    163  CA        24.1810   -2.7290   29.0720 C.3   148  ASP148      0.1840
    164  C         24.7260   -1.4830   29.7880 C.2   148  ASP148      0.2622
    165  O         25.4040   -0.6470   29.1860 O.2   148  ASP148     -0.2715
    166  CB        25.0800   -3.1200   27.8960 C.3   148  ASP148      0.1450
    167  CG        26.3100   -3.8660   28.3400 C.2   148  ASP148      0.3671
    168  OD1       26.9620   -3.4210   29.3130 O.co2 148  ASP148     -0.2456
    169  OD2       26.6160   -4.9040   27.7200 O.co2 148  ASP148     -0.2456
    170  N         24.4450   -1.3860   31.0830 N.am  149  PHE149     -0.1974
    171  CA        24.8350   -0.2290   31.8800 C.3   149  PHE149      0.1639
    172  C         26.0950   -0.4950   32.7150 C.2   149  PHE149      0.2290
    173  O         26.3180    0.1540   33.7450 O.2   149  PHE149     -0.2864
    174  CB        23.6660    0.1960   32.7770 C.3   149  PHE149      0.0560
    175  CG        22.4000    0.4880   32.0190 C.ar  149  PHE149     -0.0200
    176  CD1       22.1340    1.7740   31.5550 C.ar  149  PHE149     -0.0042
    177  CD2       21.4780   -0.5260   31.7580 C.ar  149  PHE149     -0.0042
    178  CE1       20.9680    2.0440   30.8480 C.ar  149  PHE149     -0.0003
    179  CE2       20.3170   -0.2670   31.0470 C.ar  149  PHE149     -0.0003
    180  CZ        20.0580    1.0210   30.5930 C.ar  149  PHE149     -0.0000
@<TRIPOS>BOND
     1   144   143    2
     2   143   142    1
     3   130   129    1
     4   142   141    1
     5   142   145    1
     6   129   128    1
     7   145   146    1
     8   147   146   ar
     9   128   127    1
    10   146   148   ar
    11   127   126    1
    12   138   137    2
    13   126   123    1
    14   125   124    2
    15   137   136    1
    16   123   124    1
    17   123   122    1
    18   140   139    1
    19   124   131   am
    20   136   135    1
    21   136   139    1
    22   122   119   am
    23   135   133   am
    24   131   132    1
    25   133   134    2
    26   133   132    1
    27   120   119    2
    28   119   118    1
    29     9     8    1
    30   121   118    1
    31   151   152    2
    32   151   150    1
    33   118   117    1
    34     8     7    1
    35   150   149    1
    36   150   153    1
    37   117   111   am
    38     7     6    1
    39    13    12    2
    40   112   111    2
    41   111   110    1
    42   156   154    1
    43   153   154    1
    44    17    15    1
    45     6     5    1
    46   116   115    1
    47    12    11    1
    48    12    18   am
    49   154   155    1
    50    11    14    1
    51    11    10    1
    52   113   110    1
    53   113   114    1
    54   110   109    1
    55   108   107   ar
    56   108   106   ar
    57    14    15    1
    58   107   105   ar
    59    19    18    1
    60    19    20    1
    61    15    16    1
    62     5     2    1
    63   115   114    1
    64   106   104   ar
    65   105   103   ar
    66   109   100   am
    67    20    21    2
    68   101   100    2
    69     2     3    1
    70     2     1    1
    71     3     4    2
    72   100    99    1
    73   157   158    1
    74   104   103   ar
    75   161   158    1
    76   103   102    1
    77   158   159    1
    78    73    71    1
    79    25    24    2
    80   169   167   ar
    81   102    99    1
    82    99    98    1
    83    97    95   ar
    84   160   159    2
    85   166   167    1
    86   166   163    1
    87   159   162   am
    88    26    28    1
    89    26    27    1
    90    26    23    1
    91   167   168   ar
    92   162   163    1
    93    24    23    1
    94    95    94    1
    95    95    96   ar
    96    98    91   am
    97    71    68    1
    98    71    72    1
    99    67    68    1
   100   163   164    1
   101    23    22    1
   102   165   164    2
   103    94    93    1
   104    92    91    2
   105    68    69    1
   106    33    30    1
   107    91    90    1
   108   164   170   am
   109    30    29    1
   110    30    31    1
   111    93    90    1
   112   180   178   ar
   113   180   179   ar
   114    90    89    1
   115   178   176   ar
   116    69    70    2
   117   179   177   ar
   118   170   171    1
   119    87    86    1
   120   176   175   ar
   121    48    49    1
   122    48    47    1
   123    31    34   am
   124    31    32    2
   125    37    36    2
   126   177   175   ar
   127    34    35    1
   128   171   172    1
   129   171   174    1
   130    89    84   am
   131    85    84    2
   132   175   174    1
   133    84    83    1
   134    58    56   ar
   135    46    47    1
   136    46    45    1
   137    86    83    1
   138    86    88    1
   139    36    35    1
   140    36    41   am
   141   172   173    2
   142    35    38    1
   143    45    42    1
   144    42    41    1
   145    42    43    1
   146    83    82    1
   147    56    57   ar
   148    56    55    1
   149    38    40    1
   150    38    39    1
   151    65    64    1
   152    65    66    1
   153    43    44    2
   154    55    54    1
   155    77    76    2
   156    64    63    1
   157    54    51    1
   158    76    75    1
   159    80    78    1
   160    63    60    1
   161    78    75    1
   162    78    79    1
   163    51    52    1
   164    51    50    1
   165    60    59    1
   166    60    61    1
   167    81    79    1
   168    53    52    2
   169    75    74    1
   170    62    61    2
