@<TRIPOS>MOLECULE
tmp/2zvbA00.pdb
 175 169 0 0 0
SMALL
GASTEIGER

@<TRIPOS>ATOM
      1  N         -3.3820    6.7830   32.4340 N.3    10  PRO10      -0.2116
      2  CA        -4.3970    7.7560   32.0210 C.3    10  PRO10       0.1372
      3  C         -4.5910    9.0230   32.8550 C.2    10  PRO10       0.2244
      4  O         -5.0480   10.0410   32.3310 O.2    10  PRO10      -0.2868
      5  CB        -5.6630    6.9100   31.9270 C.3    10  PRO10       0.0268
      6  CG        -5.4620    5.8880   33.0010 C.3    10  PRO10       0.0207
      7  CD        -4.0030    5.4980   32.8130 C.3    10  PRO10       0.0892
      8  N         -0.0550   17.5420   34.3510 N.3    36  TYR36      -0.1241
      9  CA         0.2910   16.2430   34.9150 C.3    36  TYR36       0.1605
     10  C          0.8760   16.3750   36.3150 C.2    36  TYR36       0.2264
     11  O          0.5280   15.6100   37.2090 O.2    36  TYR36      -0.2867
     12  CB         1.2600   15.5220   33.9780 C.3    36  TYR36       0.0534
     13  CG         0.5970   15.1530   32.6740 C.ar   36  TYR36      -0.0201
     14  CD1       -0.2750   14.0650   32.6000 C.ar   36  TYR36      -0.0009
     15  CD2        0.7660   15.9400   31.5360 C.ar   36  TYR36      -0.0009
     16  CE1       -0.9660   13.7750   31.4260 C.ar   36  TYR36       0.0417
     17  CE2        0.0760   15.6590   30.3560 C.ar   36  TYR36       0.0417
     18  CZ        -0.7890   14.5760   30.3110 C.ar   36  TYR36       0.1957
     19  OH        -1.4950   14.3090   29.1590 O.3    36  TYR36      -0.2866
     20  N          5.3840   11.5950   32.4970 N.3    80  SER80      -0.1202
     21  CA         4.6760   11.6290   31.2170 C.3    80  SER80       0.2020
     22  C          3.2890   10.9980   31.3760 C.2    80  SER80       0.2619
     23  O          3.1210   10.0300   32.1200 O.2    80  SER80      -0.2717
     24  CB         5.4310   10.8300   30.1420 C.3    80  SER80       0.2103
     25  OG         6.6140   11.4750   29.7110 O.3    80  SER80      -0.2182
     26  N          2.2970   11.5460   30.6830 N.am   81  GLY81      -0.1942
     27  CA         0.9750   10.9540   30.7450 C.3    81  GLY81       0.2014
     28  C          1.1030    9.6260   30.0130 C.2    81  GLY81       0.2639
     29  O          1.9310    9.5080   29.1100 O.2    81  GLY81      -0.2714
     30  N          0.3200    8.6220   30.4050 N.am   82  GLY82      -0.1939
     31  CA         0.3860    7.3270   29.7400 C.3    82  GLY82       0.2014
     32  C          1.7350    6.6370   29.8660 C.2    82  GLY82       0.2638
     33  O          2.1700    6.3370   30.9740 O.2    82  GLY82      -0.2714
     34  N          2.3830    6.3700   28.7290 N.am   83  ASP83      -0.1971
     35  CA         3.7050    5.7370   28.6980 C.3    83  ASP83       0.1709
     36  C          4.7320    6.7600   28.1690 C.2    83  ASP83       0.2293
     37  O          4.4420    7.5130   27.2410 O.2    83  ASP83      -0.2864
     38  CB         3.6900    4.5180   27.7740 C.3    83  ASP83       0.1436
     39  CG         4.9560    3.6860   27.8910 C.2    83  ASP83       0.3671
     40  OD1        4.9830    2.7760   28.7470 O.co2  83  ASP83      -0.2456
     41  OD2        5.9260    3.9530   27.1410 O.co2  83  ASP83      -0.2456
     42  N          5.6360    6.5460   24.1550 N.3    86  ILE86      -0.1231
     43  CA         4.6160    6.7280   23.1260 C.3    86  ILE86       0.1692
     44  C          4.3690    8.2280   23.0070 C.2    86  ILE86       0.2592
     45  O          3.6420    8.8090   23.8160 O.2    86  ILE86      -0.2718
     46  CB         3.2940    6.0160   23.5110 C.3    86  ILE86       0.0266
     47  CG1        3.5340    4.5130   23.6820 C.3    86  ILE86       0.0019
     48  CG2        2.2380    6.2490   22.4280 C.3    86  ILE86       0.0020
     49  CD1        3.9470    3.8020   22.4050 C.3    86  ILE86       0.0001
     50  N          4.9890    8.8480   22.0030 N.am   87  TYR87      -0.1962
     51  CA         4.8780   10.2890   21.7870 C.3    87  TYR87       0.1771
     52  C          5.1810   10.9720   23.1210 C.2    87  TYR87       0.2620
     53  O          4.5510   11.9670   23.4790 O.2    87  TYR87      -0.2715
     54  CB         3.4650   10.6600   21.3150 C.3    87  TYR87       0.0574
     55  CG         2.9720    9.8360   20.1450 C.ar   87  TYR87      -0.0198
     56  CD1        3.6670    9.8160   18.9290 C.ar   87  TYR87      -0.0009
     57  CD2        1.8400    9.0360   20.2670 C.ar   87  TYR87      -0.0009
     58  CE1        3.2430    9.0080   17.8690 C.ar   87  TYR87       0.0417
     59  CE2        1.4100    8.2260   19.2210 C.ar   87  TYR87       0.0417
     60  CZ         2.1130    8.2140   18.0270 C.ar   87  TYR87       0.1957
     61  OH         1.6860    7.4000   17.0030 O.3    87  TYR87      -0.2866
     62  N          6.1590   10.4300   23.8470 N.am   88  GLY88      -0.1954
     63  CA         6.5090   10.9660   25.1510 C.3    88  GLY88       0.1869
     64  C          7.9060   11.5360   25.3130 C.2    88  GLY88       0.2309
     65  O          8.4850   12.0790   24.3730 O.2    88  GLY88      -0.2863
     66  N         -0.8450    3.1210   28.1490 N.3   131  THR131     -0.1203
     67  CA        -0.9270    4.1840   27.1540 C.3   131  THR131      0.1994
     68  C         -2.3890    4.4900   26.8360 C.2   131  THR131      0.2617
     69  O         -3.2820    3.6750   27.1020 O.2   131  THR131     -0.2717
     70  CB        -0.1360    3.8200   25.8560 C.3   131  THR131      0.1784
     71  OG1       -0.0130    4.9890   25.0340 O.3   131  THR131     -0.2211
     72  CG2       -0.8400    2.7280   25.0720 C.3   131  THR131      0.0376
     73  N         -2.6340    5.6690   26.2740 N.am  132  ALA132     -0.1979
     74  CA        -3.9870    6.0930   25.9570 C.3   132  ALA132      0.1597
     75  C         -4.7690    5.0570   25.1500 C.2   132  ALA132      0.2287
     76  O         -5.9430    4.8290   25.4220 O.2   132  ALA132     -0.2864
     77  CB        -3.9570    7.4390   25.2180 C.3   132  ALA132      0.0319
     78  N         -5.9240    2.4350   27.5080 N.3   135  ALA135     -0.1231
     79  CA        -6.8030    3.0400   28.5020 C.3   135  ALA135      0.1694
     80  C         -8.1860    3.3270   27.9080 C.2   135  ALA135      0.2591
     81  O         -9.2070    3.0000   28.5220 O.2   135  ALA135     -0.2718
     82  CB        -6.1850    4.3260   29.0430 C.3   135  ALA135      0.0304
     83  N         -8.2420    3.9280   26.7180 N.am  136  VAL136     -0.1980
     84  CA        -9.5570    4.2110   26.1450 C.3   136  VAL136      0.1595
     85  C        -10.2350    2.9270   25.6600 C.2   136  VAL136      0.2287
     86  O        -11.4620    2.8200   25.6800 O.2   136  VAL136     -0.2864
     87  CB        -9.4900    5.2670   24.9920 C.3   136  VAL136      0.0276
     88  CG1       -8.7160    6.5010   25.4630 C.3   136  VAL136      0.0022
     89  CG2       -8.8670    4.6770   23.7540 C.3   136  VAL136      0.0022
     90  N         -3.8060    9.6660   18.1050 N.3   180  TYR180     -0.1227
     91  CA        -3.3500   10.4550   19.2510 C.3   180  TYR180      0.1736
     92  C         -3.2850   11.9050   18.7610 C.2   180  TYR180      0.2595
     93  O         -3.0800   12.1340   17.5680 O.2   180  TYR180     -0.2718
     94  CB        -1.9390   10.0280   19.6860 C.3   180  TYR180      0.0548
     95  CG        -1.8490    8.7720   20.5400 C.ar  180  TYR180     -0.0200
     96  CD1       -2.1200    7.5180   20.0030 C.ar  180  TYR180     -0.0009
     97  CD2       -1.4520    8.8430   21.8790 C.ar  180  TYR180     -0.0009
     98  CE1       -1.9950    6.3590   20.7730 C.ar  180  TYR180      0.0417
     99  CE2       -1.3230    7.6890   22.6590 C.ar  180  TYR180      0.0417
    100  CZ        -1.5940    6.4530   22.0970 C.ar  180  TYR180      0.1957
    101  OH        -1.4430    5.3060   22.8450 O.3   180  TYR180     -0.2866
    102  N         -3.4510   12.8690   19.6660 N.am  181  ASN181     -0.1961
    103  CA        -3.3930   14.2900   19.2950 C.3   181  ASN181      0.1804
    104  C         -4.2530   14.5330   18.0450 C.2   181  ASN181      0.2463
    105  O         -3.7770   15.0940   17.0550 O.2   181  ASN181     -0.2730
    106  CB        -1.9390   14.6850   18.9940 C.3   181  ASN181      0.1195
    107  CG        -0.9830   14.3340   20.1280 C.2   181  ASN181      0.2630
    108  OD1       -0.0940   13.5020   19.9670 O.2   181  ASN181     -0.2716
    109  ND2       -1.1660   14.9730   21.2830 N.am  181  ASN181     -0.0877
    110  N         -5.5350   14.1290   18.0880 N.am  182  PRO182     -0.2727
    111  CA        -6.5110   14.2530   16.9980 C.3   182  PRO182      0.1402
    112  C         -6.8760   15.6360   16.4710 C.2   182  PRO182      0.2269
    113  O         -7.0800   15.8010   15.2680 O.2   182  PRO182     -0.2865
    114  CB        -7.7270   13.5250   17.5510 C.3   182  PRO182      0.0296
    115  CG        -7.6610   13.8670   18.9980 C.3   182  PRO182      0.0237
    116  CD        -6.2000   13.6440   19.3120 C.3   182  PRO182      0.0939
    117  N        -12.9120    9.1960   22.7430 N.3   211  VAL211     -0.1245
    118  CA       -12.8910    9.0980   24.1950 C.3   211  VAL211      0.1561
    119  C        -12.0700   10.2460   24.7480 C.2   211  VAL211      0.2260
    120  O        -10.8810   10.3820   24.4620 O.2   211  VAL211     -0.2867
    121  CB       -12.3070    7.7570   24.6710 C.3   211  VAL211      0.0252
    122  CG1      -12.2690    7.7210   26.1970 C.3   211  VAL211      0.0019
    123  CG2      -13.1660    6.6180   24.1490 C.3   211  VAL211      0.0019
    124  N        -10.6470   12.5160   28.0360 N.3   213  SER213     -0.1202
    125  CA       -10.2000   12.4500   29.4250 C.3   213  SER213      0.2020
    126  C        -10.4980   11.1260   30.1140 C.2   213  SER213      0.2618
    127  O        -11.1230   11.1070   31.1780 O.2   213  SER213     -0.2717
    128  CB       -10.8520   13.5830   30.2350 C.3   213  SER213      0.2103
    129  OG       -10.4250   14.8540   29.7830 O.3   213  SER213     -0.2182
    130  N        -10.0380   10.0260   29.5240 N.am  214  ALA214     -0.1979
    131  CA       -10.2760    8.7090   30.1060 C.3   214  ALA214      0.1597
    132  C         -9.7500    8.6500   31.5380 C.2   214  ALA214      0.2287
    133  O         -8.6280    9.0700   31.8110 O.2   214  ALA214     -0.2864
    134  CB        -9.6020    7.6220   29.2560 C.3   214  ALA214      0.0319
    135  N        -10.3630   10.3970   34.0300 N.3   216  ARG216     -0.1245
    136  CA       -10.1840   11.6920   34.6830 C.3   216  ARG216      0.1563
    137  C        -11.5450   12.3440   34.8620 C.2   216  ARG216      0.2260
    138  O        -12.5680   11.7560   34.5190 O.2   216  ARG216     -0.2867
    139  CB        -9.3090   12.6140   33.8380 C.3   216  ARG216      0.0307
    140  CG        -7.9120   12.1010   33.5870 C.3   216  ARG216      0.0489
    141  CD        -7.1130   13.1860   32.9290 C.3   216  ARG216      0.2205
    142  NE        -5.8410   12.7170   32.4080 N.pl3 216  ARG216     -0.0865
    143  CZ        -4.9210   13.5300   31.9090 C.cat 216  ARG216      0.5346
    144  NH1       -5.1490   14.8380   31.8800 N.pl3 216  ARG216      0.1354
    145  NH2       -3.7900   13.0390   31.4320 N.pl3 216  ARG216      0.1354
    146  N         -7.9940   18.3560   23.1390 N.3   236  MET236     -0.1230
    147  CA        -6.5780   18.0430   23.2930 C.3   236  MET236      0.1702
    148  C         -6.3880   16.7680   24.1040 C.2   236  MET236      0.2592
    149  O         -5.3290   16.1430   24.0500 O.2   236  MET236     -0.2718
    150  CB        -5.8320   19.2000   23.9710 C.3   236  MET236      0.0401
    151  CG        -6.2340   19.4540   25.4200 C.3   236  MET236      0.0596
    152  SD        -5.1830   20.6840   26.2440 S.3   236  MET236     -0.1393
    153  CE        -3.8480   19.6360   26.8550 C.3   236  MET236      0.0692
    154  N         -7.4120   16.3890   24.8640 N.am  237  LEU237     -0.1966
    155  CA        -7.3460   15.1760   25.6680 C.3   237  LEU237      0.1728
    156  C         -8.2890   14.1230   25.1170 C.2   237  LEU237      0.2617
    157  O         -8.9520   13.4050   25.8680 O.2   237  LEU237     -0.2715
    158  CB        -7.6890   15.4680   27.1320 C.3   237  LEU237      0.0311
    159  CG        -6.5200   15.9710   27.9850 C.3   237  LEU237      0.0022
    160  CD1       -6.9650   16.1590   29.4340 C.3   237  LEU237      0.0001
    161  CD2       -5.3740   14.9580   27.9090 C.3   237  LEU237      0.0001
    162  N         -8.3420   14.0370   23.7930 N.am  238  THR238     -0.1937
    163  CA        -9.2000   13.0720   23.1280 C.3   238  THR238      0.2028
    164  C         -8.3940   12.0780   22.3010 C.2   238  THR238      0.2642
    165  O         -7.4150   12.4520   21.6650 O.2   238  THR238     -0.2714
    166  CB       -10.1970   13.7780   22.1800 C.3   238  THR238      0.1808
    167  OG1      -11.0840   14.5960   22.9470 O.3   238  THR238     -0.2208
    168  CG2      -11.0090   12.7580   21.3900 C.3   238  THR238      0.0379
    169  N         -8.8160   10.8170   22.3280 N.am  239  THR239     -0.1950
    170  CA        -8.1870    9.7570   21.5400 C.3   239  THR239      0.1897
    171  C         -9.2930    9.2050   20.6460 C.2   239  THR239      0.2313
    172  O        -10.3980    8.9400   21.1130 O.2   239  THR239     -0.2863
    173  CB        -7.6460    8.6100   22.4270 C.3   239  THR239      0.1794
    174  OG1       -6.5630    9.0990   23.2250 O.3   239  THR239     -0.2208
    175  CG2       -7.1470    7.4430   21.5600 C.3   239  THR239      0.0378
@<TRIPOS>BOND
     1   113   112    2
     2   112   111    1
     3   111   114    1
     4   111   110    1
     5    61    60    1
     6   105   104    2
     7   114   115    1
     8    93    92    2
     9    58    60   ar
    10    58    56   ar
    11    60    59   ar
    12   104   110   am
    13   104   103    1
    14   110   116    1
    15    90    91    1
    16    92    91    1
    17    92   102   am
    18    56    55   ar
    19   106   103    1
    20   106   107    1
    21   115   116    1
    22    59    57   ar
    23    91    94    1
    24   103   102    1
    25    94    95    1
    26   108   107    2
    27    96    95   ar
    28    96    98   ar
    29   107   109   am
    30    55    57   ar
    31    55    54    1
    32    95    97   ar
    33   171   172    2
    34   171   170    1
    35    98   100   ar
    36    54    51    1
    37   168   166    1
    38   170   169    1
    39   170   173    1
    40   175   173    1
    41   165   164    2
    42    51    50    1
    43    51    52    1
    44    97    99   ar
    45    50    44   am
    46   100    99   ar
    47   100   101    1
    48   166   167    1
    49   166   163    1
    50   164   169   am
    51   164   163    1
    52    49    47    1
    53   173   174    1
    54    48    46    1
    55   117   118    1
    56    44    43    1
    57    44    45    2
    58    52    53    2
    59    52    62   am
    60    43    46    1
    61    43    42    1
    62   163   162    1
    63   146   147    1
    64   147   150    1
    65   147   148    1
    66    46    47    1
    67    89    87    1
    68   162   156   am
    69    62    63    1
    70   150   151    1
    71   149   148    2
    72   148   154   am
    73   123   121    1
    74   118   121    1
    75   118   119    1
    76    65    64    2
    77   120   119    2
    78   121   122    1
    79   154   155    1
    80    87    88    1
    81    87    84    1
    82    71    70    1
    83    72    70    1
    84   156   155    1
    85   156   157    2
    86    75    76    2
    87    75    74    1
    88    63    64    1
    89    77    74    1
    90   151   152    1
    91    85    86    2
    92    85    84    1
    93   155   158    1
    94    70    67    1
    95    74    73    1
    96    84    83    1
    97   152   153    1
    98    73    68   am
    99    83    80   am
   100    68    69    2
   101    68    67    1
   102   158   159    1
   103    41    39   ar
   104    67    66    1
   105    37    36    2
   106    78    79    1
   107    38    39    1
   108    38    35    1
   109    39    40   ar
   110    80    79    1
   111    80    81    2
   112   161   159    1
   113   159   160    1
   114   124   125    1
   115    36    35    1
   116    79    82    1
   117    35    34    1
   118    34    32   am
   119    29    28    2
   120    19    18    1
   121   134   131    1
   122   125   126    1
   123   125   128    1
   124   130   131    1
   125   130   126   am
   126    25    24    1
   127    31    32    1
   128    31    30    1
   129   129   128    1
   130    32    33    2
   131    28    30   am
   132    28    27    1
   133   131   132    1
   134   126   127    2
   135    24    21    1
   136    18    17   ar
   137    18    16   ar
   138    17    15   ar
   139    26    27    1
   140    26    22   am
   141    21    22    1
   142    21    20    1
   143    22    23    2
   144    16    14   ar
   145   145   143    1
   146    15    13   ar
   147   132   133    2
   148   144   143    1
   149   143   142    2
   150     5     2    1
   151     5     6    1
   152     2     1    1
   153     2     3    1
   154     4     3    2
   155   142   141    1
   156     1     7    1
   157    14    13   ar
   158    13    12    1
   159     7     6    1
   160   141   140    1
   161   140   139    1
   162   139   136    1
   163    12     9    1
   164   135   136    1
   165     8     9    1
   166   138   137    2
   167   136   137    1
   168     9    10    1
   169    10    11    2
