@<TRIPOS>MOLECULE
tmp/2zvjA01.pdb
 111 111 0 0 0
SMALL
GASTEIGER

@<TRIPOS>ATOM
      1  N         -8.1300   16.3200  -17.0790 N.3    36  TRP36      -0.1241
      2  CA        -9.1470   15.5260  -17.7890 C.3    36  TRP36       0.1605
      3  C         -9.4010   14.1600  -17.1120 C.2    36  TRP36       0.2264
      4  O         -8.4670   13.4640  -16.7180 O.2    36  TRP36      -0.2867
      5  CB        -8.7490   15.3220  -19.2620 C.3    36  TRP36       0.0550
      6  CG        -9.8230   14.6460  -20.0650 C.ar   36  TRP36       0.0003
      7  CD1      -10.8070   15.2590  -20.8010 C.ar   36  TRP36       0.0946
      8  CD2      -10.0460   13.2300  -20.1950 C.ar   36  TRP36       0.0152
      9  NE1      -11.6230   14.3100  -21.3860 N.ar   36  TRP36      -0.2442
     10  CE2      -11.1820   13.0590  -21.0290 C.ar   36  TRP36       0.0810
     11  CE3       -9.3960   12.0890  -19.6910 C.ar   36  TRP36       0.0012
     12  CZ2      -11.6830   11.7920  -21.3710 C.ar   36  TRP36       0.0191
     13  CZ3       -9.8930   10.8280  -20.0300 C.ar   36  TRP36       0.0001
     14  CH2      -11.0280   10.6930  -20.8660 C.ar   36  TRP36       0.0015
     15  N        -12.5870   10.7040  -17.1830 N.3    38  MET38      -0.1230
     16  CA       -13.5360   10.0910  -18.1310 C.3    38  MET38       0.1702
     17  C        -14.9870   10.0560  -17.6340 C.2    38  MET38       0.2592
     18  O        -15.7510    9.1240  -17.9210 O.2    38  MET38      -0.2718
     19  CB       -13.0590    8.7040  -18.5720 C.3    38  MET38       0.0401
     20  CG       -12.9260    7.6970  -17.4370 C.3    38  MET38       0.0596
     21  SD       -12.2200    6.1120  -17.9550 S.3    38  MET38      -0.1393
     22  CE       -10.7680    6.6800  -18.8530 C.3    38  MET38       0.0692
     23  N        -15.3650   11.0840  -16.8870 N.am   39  ASN39      -0.1974
     24  CA       -16.7650   11.2570  -16.4900 C.3    39  ASN39       0.1688
     25  C        -17.5480   11.5590  -17.7570 C.2    39  ASN39       0.2292
     26  O        -17.0010   12.1900  -18.6750 O.2    39  ASN39      -0.2864
     27  CB       -16.8960   12.4080  -15.4870 C.3    39  ASN39       0.1181
     28  CG       -15.8590   12.3350  -14.3620 C.2    39  ASN39       0.2629
     29  OD1      -15.8600   11.3980  -13.5550 O.2    39  ASN39      -0.2716
     30  ND2      -14.9850   13.3330  -14.2970 N.am   39  ASN39      -0.0877
     31  N        -21.4920    2.5420  -19.5360 N.3   139  ASP139     -0.1225
     32  CA       -20.3670    3.4550  -19.6540 C.3   139  ASP139      0.1805
     33  C        -19.0950    2.8080  -19.0810 C.2   139  ASP139      0.2598
     34  O        -18.2200    3.4990  -18.5610 O.2   139  ASP139     -0.2718
     35  CB       -20.7110    4.8050  -18.9940 C.3   139  ASP139      0.1424
     36  CG       -19.6890    5.9130  -19.2950 C.2   139  ASP139      0.3668
     37  OD1      -19.5030    6.7520  -18.3880 O.co2 139  ASP139     -0.2456
     38  OD2      -19.0870    6.0050  -20.4140 O.co2 139  ASP139     -0.2456
     39  N        -18.9980    1.4760  -19.1890 N.am  140  HIS140     -0.1961
     40  CA       -17.8040    0.7720  -18.7080 C.3   140  HIS140      0.1787
     41  C        -16.7760    0.5370  -19.8440 C.2   140  HIS140      0.2620
     42  O        -16.6800    1.3630  -20.7570 O.2   140  HIS140     -0.2715
     43  CB       -18.1590   -0.4640  -17.8520 C.3   140  HIS140      0.0785
     44  CG       -19.0810   -1.4470  -18.5100 C.ar  140  HIS140      0.0821
     45  ND1      -19.8280   -1.1550  -19.6270 N.ar  140  HIS140     -0.2267
     46  CD2      -19.3940   -2.7250  -18.1720 C.ar  140  HIS140      0.1154
     47  CE1      -20.5290   -2.2270  -19.9740 C.ar  140  HIS140      0.1986
     48  NE2      -20.2850   -3.1910  -19.1000 N.ar  140  HIS140     -0.2212
     49  N        -15.9980   -0.5490  -19.7940 N.am  141  TRP141     -0.1960
     50  CA       -15.1070   -0.8420  -20.9210 C.3   141  TRP141      0.1771
     51  C        -15.9500   -1.1340  -22.1670 C.2   141  TRP141      0.2619
     52  O        -16.9690   -1.8430  -22.1050 O.2   141  TRP141     -0.2715
     53  CB       -14.1200   -1.9810  -20.6030 C.3   141  TRP141      0.0590
     54  CG       -12.9860   -1.6870  -19.5660 C.ar  141  TRP141      0.0006
     55  CD1      -12.1460   -2.6230  -19.0130 C.ar  141  TRP141      0.0946
     56  CD2      -12.6150   -0.4220  -18.9540 C.ar  141  TRP141      0.0152
     57  NE1      -11.2730   -2.0280  -18.1240 N.ar  141  TRP141     -0.2442
     58  CE2      -11.5400   -0.6880  -18.0580 C.ar  141  TRP141      0.0810
     59  CE3      -13.0880    0.8990  -19.0660 C.ar  141  TRP141      0.0012
     60  CZ2      -10.9070    0.3190  -17.3060 C.ar  141  TRP141      0.0191
     61  CZ3      -12.4470    1.9210  -18.3120 C.ar  141  TRP141      0.0001
     62  CH2      -11.3650    1.6150  -17.4430 C.ar  141  TRP141      0.0015
     63  N        -15.5230   -0.5520  -23.2870 N.am  142  LYS142     -0.1977
     64  CA       -16.3170   -0.5370  -24.5250 C.3   142  LYS142      0.1596
     65  C        -16.5540   -1.9250  -25.1600 C.2   142  LYS142      0.2287
     66  O        -17.6040   -2.1770  -25.7810 O.2   142  LYS142     -0.2864
     67  CB       -15.7100    0.4460  -25.5240 C.3   142  LYS142      0.0298
     68  CG       -15.5170    1.9040  -25.0140 C.3   142  LYS142      0.0038
     69  CD       -16.7170    2.4860  -24.1930 C.3   142  LYS142      0.0206
     70  CE       -16.1910    3.4890  -23.1500 C.3   142  LYS142      0.1093
     71  NZ       -17.1730    3.8400  -22.0650 N.3   142  LYS142     -0.1314
     72  N        -22.9630    5.4620  -23.5160 N.3   167  ASP167     -0.1225
     73  CA       -22.0190    6.5410  -23.7510 C.3   167  ASP167      0.1805
     74  C        -20.9310    6.0150  -24.7110 C.2   167  ASP167      0.2597
     75  O        -20.7760    4.8010  -24.8590 O.2   167  ASP167     -0.2718
     76  CB       -21.4190    7.0500  -22.4270 C.3   167  ASP167      0.1424
     77  CG       -20.5800    8.3180  -22.5990 C.2   167  ASP167      0.3668
     78  OD1      -20.7270    9.0420  -23.5910 O.co2 167  ASP167     -0.2456
     79  OD2      -19.7290    8.6120  -21.7510 O.co2 167  ASP167     -0.2456
     80  N        -20.2150    6.9280  -25.3650 N.am  168  ASN168     -0.1974
     81  CA       -18.9740    6.6230  -26.0760 C.3   168  ASN168      0.1688
     82  C        -19.1040    5.7630  -27.3070 C.2   168  ASN168      0.2292
     83  O        -18.1430    5.1560  -27.7950 O.2   168  ASN168     -0.2864
     84  CB       -17.9590    6.0300  -25.1130 C.3   168  ASN168      0.1181
     85  CG       -17.7190    6.9140  -23.9660 C.2   168  ASN168      0.2629
     86  OD1      -18.0260    6.5650  -22.8260 O.2   168  ASN168     -0.2716
     87  ND2      -17.2070    8.0960  -24.2440 N.am  168  ASN168     -0.0877
     88  N        -14.4980    6.3570  -27.3770 N.3   172  PRO172     -0.2116
     89  CA       -13.6340    5.5410  -28.2720 C.3   172  PRO172      0.1372
     90  C        -14.3620    4.6560  -29.2900 C.2   172  PRO172      0.2244
     91  O        -13.7470    4.2170  -30.2460 O.2   172  PRO172     -0.2868
     92  CB       -12.7820    4.7090  -27.2980 C.3   172  PRO172      0.0268
     93  CG       -12.9030    5.4010  -25.9900 C.3   172  PRO172      0.0207
     94  CD       -14.2680    6.0100  -25.9610 C.3   172  PRO172      0.0892
     95  N        -17.3520   14.8310  -26.8750 N.3   196  LEU196     -0.1231
     96  CA       -16.6230   14.1970  -25.7980 C.3   196  LEU196      0.1693
     97  C        -16.4460   15.1700  -24.6430 C.2   196  LEU196      0.2591
     98  O        -16.4290   16.3840  -24.8290 O.2   196  LEU196     -0.2718
     99  CB       -15.2690   13.6850  -26.2880 C.3   196  LEU196      0.0284
    100  CG       -14.6590   12.5110  -25.5240 C.3   196  LEU196      0.0019
    101  CD1      -15.5980   11.2980  -25.4690 C.3   196  LEU196      0.0001
    102  CD2      -13.3240   12.1280  -26.1480 C.3   196  LEU196      0.0001
    103  N        -16.3490   14.6170  -23.4430 N.am  197  GLU197     -0.1979
    104  CA       -16.1730   15.3920  -22.2280 C.3   197  GLU197      0.1602
    105  C        -14.8800   16.2250  -22.2380 C.2   197  GLU197      0.2287
    106  O        -13.7660   15.7100  -22.4900 O.2   197  GLU197     -0.2864
    107  CB       -16.1900   14.4590  -21.0150 C.3   197  GLU197      0.0415
    108  CG       -15.1540   13.3380  -21.0950 C.3   197  GLU197      0.1163
    109  CD       -15.7390   11.9850  -21.4780 C.2   197  GLU197      0.3649
    110  OE1      -16.7320   11.9080  -22.2500 O.co2 197  GLU197     -0.2457
    111  OE2      -15.1830   10.9860  -20.9730 O.co2 197  GLU197     -0.2457
@<TRIPOS>BOND
     1    91    90    2
     2    90    89    1
     3    89    88    1
     4    89    92    1
     5    83    82    2
     6    88    94    1
     7    82    81    1
     8    92    93    1
     9    95    96    1
    10    99    96    1
    11    99   100    1
    12   102   100    1
    13    81    80    1
    14    81    84    1
    15    93    94    1
    16    96    97    1
    17    66    65    2
    18    67    68    1
    19    67    64    1
    20   100   101    1
    21    80    74   am
    22    65    64    1
    23    84    85    1
    24    68    69    1
    25    75    74    2
    26    98    97    2
    27    74    73    1
    28    97   103   am
    29    64    63    1
    30    87    85   am
    31    69    70    1
    32    85    86    2
    33    73    72    1
    34    73    76    1
    35    78    77   ar
    36   103   104    1
    37    63    51   am
    38    70    71    1
    39    77    76    1
    40    77    79   ar
    41   106   105    2
    42   110   109   ar
    43   105   104    1
    44   104   107    1
    45    51    52    2
    46    51    50    1
    47   109   108    1
    48   109   111   ar
    49     9    10   ar
    50     9     7   ar
    51    12    10   ar
    52    12    14   ar
    53   108   107    1
    54    10     8   ar
    55    50    53    1
    56    50    49    1
    57    14    13   ar
    58     7     6   ar
    59    42    41    2
    60    53    54    1
    61    38    36   ar
    62     8     6   ar
    63     8    11   ar
    64     6     5    1
    65    13    11   ar
    66    47    45   ar
    67    47    48   ar
    68    41    49   am
    69    41    40    1
    70    32    31    1
    71    32    33    1
    72    32    35    1
    73    45    44   ar
    74    54    55   ar
    75    54    56   ar
    76    36    35    1
    77    36    37   ar
    78     5     2    1
    79    39    33   am
    80    39    40    1
    81    48    46   ar
    82    33    34    2
    83    59    56   ar
    84    59    61   ar
    85    55    57   ar
    86    56    58   ar
    87    22    21    1
    88    40    43    1
    89    26    25    2
    90    19    16    1
    91    19    20    1
    92    44    46   ar
    93    44    43    1
    94    61    62   ar
    95    16    17    1
    96    16    15    1
    97    57    58   ar
    98    58    60   ar
    99    21    20    1
   100    18    17    2
   101     2     3    1
   102     2     1    1
   103    25    24    1
   104    17    23   am
   105    62    60   ar
   106     3     4    2
   107    23    24    1
   108    24    27    1
   109    27    28    1
   110    28    30   am
   111    28    29    2
