@<TRIPOS>MOLECULE
tmp/2zvkC00.pdb
 191 189 0 0 0
SMALL
GASTEIGER

@<TRIPOS>ATOM
      1  N         56.9840   33.6700   31.8720 N.3    40  MET40      -0.1245
      2  CA        56.1320   33.6780   33.0320 C.3    40  MET40       0.1570
      3  C         55.1580   32.5200   33.0120 C.2    40  MET40       0.2261
      4  O         54.6940   32.1130   31.9480 O.2    40  MET40      -0.2867
      5  CB        55.3460   34.9740   33.0760 C.3    40  MET40       0.0387
      6  CG        56.2060   36.1540   33.5230 C.3    40  MET40       0.0595
      7  SD        55.3540   37.7410   33.4340 S.3    40  MET40      -0.1393
      8  CE        54.5560   37.6480   35.0390 C.3    40  MET40       0.0692
      9  N         49.6710   32.1160   35.3710 N.3    43  SER43      -0.1202
     10  CA        49.3120   32.9580   36.4950 C.3    43  SER43       0.2020
     11  C         49.9410   34.3920   36.3760 C.2    43  SER43       0.2619
     12  O         49.3640   35.4070   36.8090 O.2    43  SER43      -0.2717
     13  CB        49.8410   32.3150   37.7570 C.3    43  SER43       0.2103
     14  OG        50.2780   33.3410   38.6260 O.3    43  SER43      -0.2182
     15  N         51.1470   34.4530   35.8160 N.am   44  HIS44      -0.1961
     16  CA        51.9560   35.6780   35.8090 C.3    44  HIS44       0.1787
     17  C         52.5480   36.0700   37.1440 C.2    44  HIS44       0.2620
     18  O         52.9920   37.1920   37.3140 O.2    44  HIS44      -0.2715
     19  CB        51.1680   36.8320   35.2590 C.3    44  HIS44       0.0785
     20  CG        51.3790   37.0190   33.7960 C.ar   44  HIS44       0.0821
     21  ND1       51.7630   38.2190   33.2410 N.ar   44  HIS44      -0.2267
     22  CD2       51.3190   36.1310   32.7760 C.ar   44  HIS44       0.1154
     23  CE1       51.9040   38.0680   31.9360 C.ar   44  HIS44       0.1986
     24  NE2       51.6300   36.8130   31.6280 N.ar   44  HIS44      -0.2212
     25  N         52.6080   35.1260   38.0690 N.am   45  VAL45      -0.1963
     26  CA        53.1960   35.3940   39.3520 C.3    45  VAL45       0.1727
     27  C         54.6510   35.0260   39.3850 C.2    45  VAL45       0.2617
     28  O         55.3650   35.4080   40.3000 O.2    45  VAL45      -0.2715
     29  CB        52.4880   34.6010   40.4290 C.3    45  VAL45       0.0290
     30  CG1       53.2240   34.7290   41.7090 C.3    45  VAL45       0.0023
     31  CG2       51.0800   35.1240   40.5980 C.3    45  VAL45       0.0023
     32  N         55.1010   34.2820   38.3950 N.am   46  SER46      -0.1936
     33  CA        56.4740   33.8270   38.3920 C.3    46  SER46       0.2055
     34  C         57.0120   33.7340   36.9840 C.2    46  SER46       0.2642
     35  O         56.2730   33.6540   36.0170 O.2    46  SER46      -0.2714
     36  CB        56.5640   32.4500   39.0450 C.3    46  SER46       0.2130
     37  OG        56.1310   31.4260   38.1590 O.3    46  SER46      -0.2179
     38  N         58.3240   33.7310   36.8690 N.am   47  LEU47      -0.1977
     39  CA        58.9250   33.2940   35.6390 C.3    47  LEU47       0.1596
     40  C         60.2240   32.5610   35.8790 C.2    47  LEU47       0.2287
     41  O         60.7760   32.5110   36.9890 O.2    47  LEU47      -0.2864
     42  CB        59.1890   34.4660   34.7090 C.3    47  LEU47       0.0297
     43  CG        60.3610   35.3650   35.1690 C.3    47  LEU47       0.0022
     44  CD1       61.7240   34.7240   34.7880 C.3    47  LEU47       0.0001
     45  CD2       60.2170   36.7970   34.6070 C.3    47  LEU47       0.0001
     46  N         55.1720   37.4880   26.0510 N.3   124  GLU124     -0.1231
     47  CA        55.7630   38.6450   26.7840 C.3   124  GLU124      0.1699
     48  C         57.1370   38.3640   27.4700 C.2   124  GLU124      0.2592
     49  O         57.4230   37.2490   27.9240 O.2   124  GLU124     -0.2718
     50  CB        54.7720   39.1610   27.8420 C.3   124  GLU124      0.0402
     51  CG        55.2010   40.4450   28.5190 C.3   124  GLU124      0.1161
     52  CD        54.1380   41.0160   29.4630 C.2   124  GLU124      0.3649
     53  OE1       53.2490   40.2450   29.8870 O.co2 124  GLU124     -0.2457
     54  OE2       54.1880   42.2420   29.7870 O.co2 124  GLU124     -0.2457
     55  N         57.9680   39.3980   27.5350 N.am  125  GLN125     -0.1966
     56  CA        59.2720   39.2980   28.1850 C.3   125  GLN125      0.1733
     57  C         59.4860   40.4950   29.1040 C.2   125  GLN125      0.2616
     58  O         58.9630   41.5790   28.8460 O.2   125  GLN125     -0.2715
     59  CB        60.3890   39.2260   27.1410 C.3   125  GLN125      0.0408
     60  CG        60.2520   38.0790   26.1630 C.3   125  GLN125      0.0908
     61  CD        61.2320   38.1780   25.0100 C.2   125  GLN125      0.2608
     62  OE1       61.9100   39.1910   24.8420 O.2   125  GLN125     -0.2717
     63  NE2       61.3100   37.1220   24.2080 N.am  125  GLN125     -0.0878
     64  N         60.2470   40.3040   30.1770 N.am  126  LEU126     -0.1963
     65  CA        60.4550   41.3820   31.1340 C.3   126  LEU126      0.1728
     66  C         61.9200   41.6660   31.3550 C.2   126  LEU126      0.2617
     67  O         62.7650   40.7730   31.3350 O.2   126  LEU126     -0.2715
     68  CB        59.8150   41.0310   32.4740 C.3   126  LEU126      0.0311
     69  CG        58.4310   41.6250   32.7560 C.3   126  LEU126      0.0022
     70  CD1       57.5360   41.5270   31.5730 C.3   126  LEU126      0.0001
     71  CD2       57.8000   40.9290   33.9270 C.3   126  LEU126      0.0001
     72  N         62.2280   42.9300   31.5550 N.am  127  GLY127     -0.1940
     73  CA        63.5910   43.2850   31.8300 C.3   127  GLY127      0.2014
     74  C         63.7870   43.2260   33.3140 C.2   127  GLY127      0.2639
     75  O         63.0580   43.8680   34.0590 O.2   127  GLY127     -0.2714
     76  N         64.7790   42.4810   33.7670 N.am  128  ILE128     -0.1963
     77  CA        65.0420   42.4280   35.1940 C.3   128  ILE128      0.1712
     78  C         66.4390   42.9690   35.5510 C.2   128  ILE128      0.2458
     79  O         67.4310   42.5290   35.0050 O.2   128  ILE128     -0.2730
     80  CB        64.7990   40.9860   35.6900 C.3   128  ILE128      0.0289
     81  CG1       65.0850   40.8800   37.1770 C.3   128  ILE128      0.0022
     82  CG2       65.5960   39.9740   34.8750 C.3   128  ILE128      0.0023
     83  CD1       64.2340   39.7880   37.8400 C.3   128  ILE128      0.0001
     84  N         66.5280   43.9550   36.4620 N.am  129  PRO129     -0.2727
     85  CA        67.8810   44.5380   36.6150 C.3   129  PRO129      0.1402
     86  C         68.8370   43.8070   37.5980 C.2   129  PRO129      0.2269
     87  O         68.3990   42.9810   38.4140 O.2   129  PRO129     -0.2865
     88  CB        67.6140   46.0070   37.0620 C.3   129  PRO129      0.0296
     89  CG        66.0910   46.1090   37.3150 C.3   129  PRO129      0.0237
     90  CD        65.5410   44.6660   37.2920 C.3   129  PRO129      0.0939
     91  N         70.7730   43.7730   40.7060 N.3   131  GLN131     -0.1245
     92  CA        70.5750   44.5140   41.9590 C.3   131  GLN131      0.1566
     93  C         71.2670   43.9060   43.1900 C.2   131  GLN131      0.2260
     94  O         71.9100   42.8750   43.1040 O.2   131  GLN131     -0.2867
     95  CB        69.0800   44.6250   42.2500 C.3   131  GLN131      0.0367
     96  CG        68.5140   43.3970   42.9450 C.3   131  GLN131      0.0905
     97  CD        67.1050   43.6260   43.4210 C.2   131  GLN131      0.2608
     98  OE1       66.8740   44.0900   44.5550 O.2   131  GLN131     -0.2717
     99  NE2       66.1430   43.3300   42.5520 N.am  131  GLN131     -0.0878
    100  N         70.8360   42.2070   46.8300 N.3   133  TYR133     -0.1241
    101  CA        69.8110   41.5680   47.6190 C.3   133  TYR133      0.1605
    102  C         70.2350   41.5920   49.0490 C.2   133  TYR133      0.2264
    103  O         71.3550   41.2020   49.3800 O.2   133  TYR133     -0.2867
    104  CB        69.5460   40.1220   47.1530 C.3   133  TYR133      0.0534
    105  CG        68.8000   40.0610   45.8430 C.ar  133  TYR133     -0.0201
    106  CD1       69.4700   39.7880   44.6570 C.ar  133  TYR133     -0.0009
    107  CD2       67.4310   40.3230   45.7870 C.ar  133  TYR133     -0.0009
    108  CE1       68.7940   39.7460   43.4460 C.ar  133  TYR133      0.0417
    109  CE2       66.7470   40.2980   44.5830 C.ar  133  TYR133      0.0417
    110  CZ        67.4300   40.0040   43.4040 C.ar  133  TYR133      0.1957
    111  OH        66.7530   39.9550   42.1860 O.3   133  TYR133     -0.2866
    112  N         54.0760   31.9430   47.7640 N.3   197  ALA197     -0.1245
    113  CA        53.1400   30.8390   47.5560 C.3   197  ALA197      0.1562
    114  C         53.8570   29.4890   47.3720 C.2   197  ALA197      0.2260
    115  O         54.5510   29.2970   46.3820 O.2   197  ALA197     -0.2867
    116  CB        52.3110   31.1440   46.3340 C.3   197  ALA197      0.0290
    117  N         53.9650   27.6590   43.9180 N.3   200  TYR200     -0.1241
    118  CA        55.0730   28.0520   43.0550 C.3   200  TYR200      0.1605
    119  C         56.4430   27.4890   43.4490 C.2   200  TYR200      0.2264
    120  O         57.1530   26.9450   42.6210 O.2   200  TYR200     -0.2867
    121  CB        55.0690   29.5870   42.9110 C.3   200  TYR200      0.0534
    122  CG        53.8710   29.9660   42.0820 C.ar  200  TYR200     -0.0201
    123  CD1       52.6590   30.2210   42.6720 C.ar  200  TYR200     -0.0009
    124  CD2       53.9190   29.9300   40.6970 C.ar  200  TYR200     -0.0009
    125  CE1       51.5370   30.5030   41.9360 C.ar  200  TYR200      0.0417
    126  CE2       52.7890   30.2220   39.9300 C.ar  200  TYR200      0.0417
    127  CZ        51.5870   30.4990   40.5680 C.ar  200  TYR200      0.1957
    128  OH        50.4370   30.7810   39.8370 O.3   200  TYR200     -0.2866
    129  N         59.8120   44.0520   49.8370 N.3   221  ASP221     -0.1225
    130  CA        58.9720   44.5390   48.7470 C.3   221  ASP221      0.1805
    131  C         59.4690   44.2320   47.3300 C.2   221  ASP221      0.2598
    132  O         59.2400   45.0170   46.4140 O.2   221  ASP221     -0.2718
    133  CB        58.7330   46.0440   48.8990 C.3   221  ASP221      0.1424
    134  CG        57.8230   46.3750   50.0660 C.2   221  ASP221      0.3668
    135  OD1       57.2240   45.4390   50.6380 O.co2 221  ASP221     -0.2456
    136  OD2       57.7050   47.5690   50.4100 O.co2 221  ASP221     -0.2456
    137  N         60.1320   43.0940   47.1420 N.am  222  VAL222     -0.1966
    138  CA        60.5130   42.6530   45.7690 C.3   222  VAL222      0.1712
    139  C         60.6760   41.1180   45.5500 C.2   222  VAL222      0.2458
    140  O         61.0250   40.3730   46.4680 O.2   222  VAL222     -0.2730
    141  CB        61.8250   43.3190   45.3300 C.3   222  VAL222      0.0289
    142  CG1       61.8780   44.7620   45.8500 C.3   222  VAL222      0.0023
    143  CG2       63.0320   42.4950   45.8140 C.3   222  VAL222      0.0023
    144  N         60.4410   40.6560   44.3030 N.am  223  PRO223     -0.2727
    145  CA        60.4450   39.2420   43.9250 C.3   223  PRO223      0.1402
    146  C         61.6370   38.4600   44.4130 C.2   223  PRO223      0.2269
    147  O         62.7870   38.9610   44.3930 O.2   223  PRO223     -0.2865
    148  CB        60.4700   39.2850   42.4190 C.3   223  PRO223      0.0296
    149  CG        59.7550   40.4960   42.0870 C.3   223  PRO223      0.0237
    150  CD        60.0160   41.5070   43.1800 C.3   223  PRO223      0.0939
    151  N         61.7540   33.3180   39.4630 N.3   239  TYR239     -0.1227
    152  CA        61.4240   34.5040   40.2130 C.3   239  TYR239      0.1736
    153  C         59.9860   34.4260   40.5930 C.2   239  TYR239      0.2595
    154  O         59.1470   33.9760   39.8260 O.2   239  TYR239     -0.2718
    155  CB        61.6100   35.7560   39.3700 C.3   239  TYR239      0.0548
    156  CG        63.0270   36.0420   38.9300 C.ar  239  TYR239     -0.0200
    157  CD1       63.5910   35.4110   37.8110 C.ar  239  TYR239     -0.0009
    158  CD2       63.7930   36.9690   39.6040 C.ar  239  TYR239     -0.0009
    159  CE1       64.8780   35.6770   37.4200 C.ar  239  TYR239      0.0417
    160  CE2       65.0700   37.2430   39.2090 C.ar  239  TYR239      0.0417
    161  CZ        65.6010   36.6130   38.1240 C.ar  239  TYR239      0.1957
    162  OH        66.8860   36.9180   37.7930 O.3   239  TYR239     -0.2866
    163  N         59.6650   34.9200   41.7650 N.am  240  LEU240     -0.1966
    164  CA        58.3200   34.7840   42.2700 C.3   240  LEU240      0.1728
    165  C         58.0050   36.0290   43.0110 C.2   240  LEU240      0.2616
    166  O         58.7850   36.4480   43.8830 O.2   240  LEU240     -0.2715
    167  CB        58.2560   33.6170   43.2620 C.3   240  LEU240      0.0311
    168  CG        56.9090   33.3430   43.9420 C.3   240  LEU240      0.0022
    169  CD1       55.8190   33.0610   42.9520 C.3   240  LEU240      0.0001
    170  CD2       57.0420   32.1370   44.9320 C.3   240  LEU240      0.0001
    171  N         56.8720   36.6410   42.7370 N.am  241  ALA241     -0.1964
    172  CA        56.5050   37.7640   43.5980 C.3   241  ALA241      0.1713
    173  C         55.9510   37.3160   44.9460 C.2   241  ALA241      0.2458
    174  O         55.4120   36.1990   45.1040 O.2   241  ALA241     -0.2730
    175  CB        55.5310   38.6460   42.9150 C.3   241  ALA241      0.0333
    176  N         56.0730   38.1910   45.9270 N.am  242  PRO242     -0.2716
    177  CA        55.5670   37.9170   47.2450 C.3   242  PRO242      0.1536
    178  C         54.0800   38.2340   47.2820 C.2   242  PRO242      0.2598
    179  O         53.5980   38.8900   46.3570 O.2   242  PRO242     -0.2715
    180  CB        56.3680   38.8630   48.1110 C.3   242  PRO242      0.0310
    181  CG        56.8380   39.9870   47.1510 C.3   242  PRO242      0.0237
    182  CD        56.5300   39.5760   45.7790 C.3   242  PRO242      0.0939
    183  N         53.3770   37.7810   48.3150 N.am  243  LYS243     -0.1978
    184  CA        51.9460   38.0340   48.4390 C.3   243  LYS243      0.1596
    185  C         51.6780   39.4570   48.9200 C.2   243  LYS243      0.2287
    186  O         51.2280   39.6660   50.0470 O.2   243  LYS243     -0.2864
    187  CB        51.3030   37.0260   49.3940 C.3   243  LYS243      0.0298
    188  CG        51.3020   35.5950   48.8790 C.3   243  LYS243      0.0038
    189  CD        50.6710   34.6450   49.8850 C.3   243  LYS243      0.0206
    190  CE        50.6520   33.2180   49.3550 C.3   243  LYS243      0.1093
    191  NZ        50.0600   32.2710   50.3390 N.3   243  LYS243     -0.1314
@<TRIPOS>BOND
     1    63    61   am
     2    62    61    2
     3    61    60    1
     4    46    47    1
     5    60    59    1
     6    47    48    1
     7    47    50    1
     8    59    56    1
     9    48    55   am
    10    48    49    2
    11    55    56    1
    12    50    51    1
    13    56    57    1
    14    51    52    1
    15    58    57    2
    16    57    64   am
    17    52    54   ar
    18    52    53   ar
    19    64    65    1
    20    65    66    1
    21    65    68    1
    22    67    66    2
    23    66    72   am
    24    72    73    1
    25    70    69    1
    26    24    23   ar
    27    24    22   ar
    28    73    74    1
    29     1     2    1
    30    23    21   ar
    31     4     3    2
    32    68    69    1
    33    69    71    1
    34    22    20   ar
    35     3     2    1
    36     2     5    1
    37     5     6    1
    38    21    20   ar
    39    74    76   am
    40    74    75    2
    41     7     6    1
    42     7     8    1
    43    76    77    1
    44    20    19    1
    45    45    43    1
    46    42    43    1
    47    42    39    1
    48    44    43    1
    49    82    80    1
    50    79    78    2
    51    77    78    1
    52    77    80    1
    53    19    16    1
    54     9    10    1
    55    78    84   am
    56    39    40    1
    57    39    38    1
    58    80    81    1
    59    16    15    1
    60    16    17    1
    61    15    11   am
    62    40    41    2
    63    35    34    2
    64    11    10    1
    65    11    12    2
    66    84    85    1
    67    84    90    1
    68    10    13    1
    69    85    88    1
    70    85    86    1
    71    38    34   am
    72    34    33    1
    73    88    89    1
    74    17    18    2
    75    17    25   am
    76    81    83    1
    77    90    89    1
    78   159   157   ar
    79   159   161   ar
    80    86    87    2
    81    13    14    1
    82   162   161    1
    83   157   156   ar
    84    25    26    1
    85   161   160   ar
    86    37    36    1
    87    33    32    1
    88    33    36    1
    89    32    27   am
    90   156   155    1
    91   156   158   ar
    92   160   158   ar
    93    26    27    1
    94    26    29    1
    95   155   152    1
    96    27    28    2
    97   151   152    1
    98   154   153    2
    99   128   127    1
   100   126   127   ar
   101   126   124   ar
   102   152   153    1
   103    29    31    1
   104    29    30    1
   105   127   125   ar
   106   153   163   am
   107   124   122   ar
   108    91    92    1
   109   163   164    1
   110   125   123   ar
   111    92    95    1
   112    92    93    1
   113   122   123   ar
   114   122   121    1
   115   149   148    1
   116   149   150    1
   117   111   110    1
   118    95    96    1
   119   164   165    1
   120   164   167    1
   121   148   145    1
   122    99    97   am
   123   120   119    2
   124   171   165   am
   125   171   172    1
   126   121   118    1
   127   175   172    1
   128    96    97    1
   129   169   168    1
   130   165   166    2
   131   118   119    1
   132   118   117    1
   133    94    93    2
   134   150   144    1
   135   167   168    1
   136   110   108   ar
   137   110   109   ar
   138    97    98    2
   139   108   106   ar
   140   172   173    1
   141   145   144    1
   142   145   146    1
   143   168   170    1
   144   144   139   am
   145   147   146    2
   146   109   107   ar
   147   106   105   ar
   148   173   174    2
   149   173   176   am
   150   141   138    1
   151   141   143    1
   152   141   142    1
   153   139   138    1
   154   139   140    2
   155   138   137    1
   156   182   176    1
   157   182   181    1
   158   107   105   ar
   159   105   104    1
   160   176   177    1
   161   116   113    1
   162   179   178    2
   163   115   114    2
   164   132   131    2
   165   100   101    1
   166   137   131   am
   167   181   180    1
   168   104   101    1
   169   177   178    1
   170   177   180    1
   171   178   183   am
   172   131   130    1
   173   114   113    1
   174   113   112    1
   175   101   102    1
   176   183   184    1
   177   184   185    1
   178   184   187    1
   179   130   133    1
   180   130   129    1
   181   188   187    1
   182   188   189    1
   183   133   134    1
   184   185   186    2
   185   102   103    2
   186   190   189    1
   187   190   191    1
   188   134   136   ar
   189   134   135   ar
