@<TRIPOS>MOLECULE
tmp/2zvmC00.pdb
 144 140 0 0 0
SMALL
GASTEIGER

@<TRIPOS>ATOM
      1  N          8.8950  -23.5610   13.2000 N.3    38  GLN38      -0.1245
      2  CA         8.0630  -23.5760   14.3830 C.3    38  GLN38       0.1566
      3  C          8.8060  -24.2920   15.5130 C.2    38  GLN38       0.2260
      4  O          9.3140  -25.4080   15.3380 O.2    38  GLN38      -0.2867
      5  CB         6.7670  -24.3130   14.1100 C.3    38  GLN38       0.0367
      6  CG         5.7190  -24.1260   15.2240 C.3    38  GLN38       0.0905
      7  CD         4.4520  -24.8970   14.9050 C.2    38  GLN38       0.2608
      8  OE1        3.8270  -24.6670   13.8680 O.2    38  GLN38      -0.2717
      9  NE2        4.1020  -25.8580   15.7640 N.am   38  GLN38      -0.0878
     10  N          8.8100  -24.5040   20.0910 N.3    40  MET40      -0.1245
     11  CA         8.7020  -24.0810   21.4740 C.3    40  MET40       0.1570
     12  C         10.0770  -23.7960   22.0570 C.2    40  MET40       0.2261
     13  O         11.0570  -24.4440   21.6880 O.2    40  MET40      -0.2867
     14  CB         8.0670  -25.1800   22.3470 C.3    40  MET40       0.0387
     15  CG         6.6960  -25.5320   21.9720 C.3    40  MET40       0.0595
     16  SD         5.9310  -26.6980   23.1170 S.3    40  MET40      -0.1393
     17  CE         5.6030  -25.5390   24.3870 C.3    40  MET40       0.0692
     18  N         11.6220  -24.2480   27.9350 N.3    43  SER43      -0.1202
     19  CA        10.6660  -24.2340   29.0710 C.3    43  SER43       0.2020
     20  C          9.2370  -24.6020   28.6850 C.2    43  SER43       0.2619
     21  O          8.4340  -24.8800   29.5470 O.2    43  SER43      -0.2717
     22  CB        10.6800  -22.8580   29.7870 C.3    43  SER43       0.2103
     23  OG        10.2060  -21.7760   28.9630 O.3    43  SER43      -0.2182
     24  N          8.9290  -24.5750   27.3810 N.am   44  HIS44      -0.1961
     25  CA         7.5880  -24.8860   26.8330 C.3    44  HIS44       0.1787
     26  C          6.5220  -23.8210   27.1470 C.2    44  HIS44       0.2620
     27  O          5.3310  -24.0800   26.9610 O.2    44  HIS44      -0.2715
     28  CB         7.1020  -26.2960   27.2430 C.3    44  HIS44       0.0785
     29  CG         7.7810  -27.3990   26.4850 C.ar   44  HIS44       0.0821
     30  ND1        7.2290  -28.6480   26.3280 N.ar   44  HIS44      -0.2267
     31  CD2        8.9610  -27.4300   25.8250 C.ar   44  HIS44       0.1154
     32  CE1        8.0300  -29.3980   25.5950 C.ar   44  HIS44       0.1986
     33  NE2        9.0890  -28.6820   25.2760 N.ar   44  HIS44      -0.2212
     34  N          6.9600  -22.6410   27.5970 N.am   45  VAL45      -0.1963
     35  CA         6.0560  -21.5430   27.9320 C.3    45  VAL45       0.1727
     36  C          5.7080  -20.6900   26.7030 C.2    45  VAL45       0.2617
     37  O          4.6640  -20.0280   26.6330 O.2    45  VAL45      -0.2715
     38  CB         6.6520  -20.6470   29.0500 C.3    45  VAL45       0.0290
     39  CG1        5.9660  -19.3350   29.1220 C.3    45  VAL45       0.0023
     40  CG2        6.5720  -21.3690   30.3940 C.3    45  VAL45       0.0023
     41  N          6.5630  -20.7500   25.7020 N.am   46  SER46      -0.1936
     42  CA         6.3350  -19.9780   24.5320 C.3    46  SER46       0.2055
     43  C          6.7140  -20.7820   23.2720 C.2    46  SER46       0.2642
     44  O          7.2980  -21.8670   23.3540 O.2    46  SER46      -0.2714
     45  CB         7.1530  -18.6940   24.6400 C.3    46  SER46       0.2130
     46  OG         8.5150  -18.9880   24.4360 O.3    46  SER46      -0.2179
     47  N          6.3470  -20.1920   22.1290 N.am   47  LEU47      -0.1977
     48  CA         6.4570  -20.7980   20.8110 C.3    47  LEU47       0.1596
     49  C          6.7580  -19.6680   19.8410 C.2    47  LEU47       0.2287
     50  O          6.1990  -18.5800   19.9870 O.2    47  LEU47      -0.2864
     51  CB         5.1750  -21.5360   20.4110 C.3    47  LEU47       0.0297
     52  CG         5.2790  -22.3340   19.0870 C.3    47  LEU47       0.0022
     53  CD1        4.5640  -23.5940   19.1320 C.3    47  LEU47       0.0001
     54  CD2        4.7310  -21.5130   17.9420 C.3    47  LEU47       0.0001
     55  N          3.0330  -29.9170   16.4590 N.3   126  LEU126     -0.1231
     56  CA         1.5860  -29.8600   16.6210 C.3   126  LEU126      0.1693
     57  C          1.0840  -28.5590   16.0250 C.2   126  LEU126      0.2593
     58  O          1.8630  -27.6420   15.7450 O.2   126  LEU126     -0.2718
     59  CB         1.1460  -30.0220   18.0880 C.3   126  LEU126      0.0284
     60  CG         1.2900  -31.4470   18.6650 C.3   126  LEU126      0.0019
     61  CD1        2.4060  -31.4990   19.7120 C.3   126  LEU126      0.0001
     62  CD2       -0.0390  -32.0180   19.2500 C.3   126  LEU126      0.0001
     63  N         -0.2220  -28.4940   15.8240 N.am  127  GLY127     -0.1942
     64  CA        -0.8520  -27.3730   15.1630 C.3   127  GLY127      0.2014
     65  C         -1.1420  -26.1900   16.0740 C.2   127  GLY127      0.2639
     66  O         -1.4820  -26.3200   17.2630 O.2   127  GLY127     -0.2714
     67  N         -0.9890  -25.0190   15.4780 N.am  128  ILE128     -0.1963
     68  CA        -1.4510  -23.7890   16.0550 C.3   128  ILE128      0.1712
     69  C         -2.8830  -23.6600   15.5340 C.2   128  ILE128      0.2458
     70  O         -3.0890  -23.6290   14.3270 O.2   128  ILE128     -0.2730
     71  CB        -0.5690  -22.5830   15.5870 C.3   128  ILE128      0.0289
     72  CG1        0.9100  -22.8080   15.9750 C.3   128  ILE128      0.0022
     73  CG2       -1.1170  -21.2750   16.1430 C.3   128  ILE128      0.0023
     74  CD1        1.9050  -21.8530   15.2990 C.3   128  ILE128      0.0001
     75  N         -3.8730  -23.5980   16.4390 N.am  129  PRO129     -0.2727
     76  CA        -5.2460  -23.3840   15.9750 C.3   129  PRO129      0.1402
     77  C         -5.4720  -21.9140   15.6550 C.2   129  PRO129      0.2269
     78  O         -5.1400  -21.0520   16.4680 O.2   129  PRO129     -0.2865
     79  CB        -6.1130  -23.8280   17.1650 C.3   129  PRO129      0.0296
     80  CG        -5.2230  -23.8590   18.3610 C.3   129  PRO129      0.0237
     81  CD        -3.7880  -23.6540   17.9120 C.3   129  PRO129      0.0939
     82  N         -7.3040  -18.8470   15.8970 N.3   131  GLN131     -0.1245
     83  CA        -8.2570  -18.4030   16.9430 C.3   131  GLN131      0.1566
     84  C         -8.9300  -17.0840   16.5420 C.2   131  GLN131      0.2260
     85  O         -8.6630  -16.4880   15.4840 O.2   131  GLN131     -0.2867
     86  CB        -7.5490  -18.1440   18.3140 C.3   131  GLN131      0.0367
     87  CG        -6.8890  -19.3340   19.0610 C.3   131  GLN131      0.0905
     88  CD        -7.8980  -20.3710   19.6830 C.2   131  GLN131      0.2608
     89  OE1       -7.5100  -21.5210   19.9460 O.2   131  GLN131     -0.2717
     90  NE2       -9.1860  -19.9660   19.8940 N.am  131  GLN131     -0.0878
     91  N         -8.0110  -17.3010   28.1160 N.3   224  ASP224     -0.1225
     92  CA        -8.0130  -18.7250   27.7620 C.3   224  ASP224      0.1805
     93  C         -7.2940  -19.0850   26.4590 C.2   224  ASP224      0.2598
     94  O         -7.3730  -20.2340   25.9960 O.2   224  ASP224     -0.2718
     95  CB        -9.4510  -19.2430   27.7200 C.3   224  ASP224      0.1424
     96  CG       -10.1610  -19.1080   29.0410 C.2   224  ASP224      0.3668
     97  OD1      -11.4100  -19.0910   29.0830 O.co2 224  ASP224     -0.2456
     98  OD2       -9.4700  -19.0650   30.0750 O.co2 224  ASP224     -0.2456
     99  N         -6.5760  -18.1350   25.8610 N.am  225  VAL225     -0.1966
    100  CA        -5.7200  -18.4240   24.6720 C.3   225  VAL225      0.1712
    101  C         -4.3600  -17.7560   24.8400 C.2   225  VAL225      0.2458
    102  O         -4.2360  -16.7940   25.5570 O.2   225  VAL225     -0.2730
    103  CB        -6.3540  -17.8500   23.3730 C.3   225  VAL225      0.0289
    104  CG1       -7.8160  -18.2570   23.2470 C.3   225  VAL225      0.0023
    105  CG2       -6.2560  -16.3210   23.4480 C.3   225  VAL225      0.0023
    106  N         -3.2970  -18.3070   24.2290 N.am  226  PRO226     -0.2727
    107  CA        -2.0150  -17.5860   24.2780 C.3   226  PRO226      0.1402
    108  C         -2.0230  -16.1670   23.6170 C.2   226  PRO226      0.2269
    109  O         -2.8070  -15.9040   22.7010 O.2   226  PRO226     -0.2865
    110  CB        -1.0660  -18.5050   23.5040 C.3   226  PRO226      0.0296
    111  CG        -1.7290  -19.8790   23.5650 C.3   226  PRO226      0.0237
    112  CD        -3.1860  -19.6330   23.5830 C.3   226  PRO226      0.0939
    113  N          4.2370  -16.8610   20.6320 N.3   242  TYR242     -0.1241
    114  CA         3.0580  -17.2240   21.3870 C.3   242  TYR242      0.1605
    115  C          3.4790  -17.4290   22.8380 C.2   242  TYR242      0.2264
    116  O          4.5030  -18.0730   23.1010 O.2   242  TYR242     -0.2867
    117  CB         2.4610  -18.5250   20.8540 C.3   242  TYR242      0.0534
    118  CG         1.8820  -18.4240   19.4780 C.ar  242  TYR242     -0.0201
    119  CD1        2.7030  -18.3990   18.3660 C.ar  242  TYR242     -0.0009
    120  CD2        0.5040  -18.3080   19.2940 C.ar  242  TYR242     -0.0009
    121  CE1        2.1770  -18.3090   17.0490 C.ar  242  TYR242      0.0417
    122  CE2       -0.0260  -18.1900   18.0270 C.ar  242  TYR242      0.0417
    123  CZ         0.8280  -18.1900   16.9070 C.ar  242  TYR242      0.1957
    124  OH         0.2940  -18.1120   15.6730 O.3   242  TYR242     -0.2866
    125  N          1.9780  -18.5270   26.6190 N.3   244  ALA244     -0.1231
    126  CA         1.0460  -19.0230   27.6320 C.3   244  ALA244      0.1679
    127  C          0.8230  -17.9320   28.7110 C.2   244  ALA244      0.2434
    128  O          1.7400  -17.1250   28.9630 O.2   244  ALA244     -0.2733
    129  CB         1.5790  -20.2820   28.2700 C.3   244  ALA244      0.0304
    130  N         -0.3960  -17.8940   29.3160 N.am  245  PRO245     -0.2729
    131  CA        -0.7080  -17.0830   30.4740 C.3   245  PRO245      0.1401
    132  C          0.2090  -17.3820   31.6440 C.2   245  PRO245      0.2269
    133  O          0.5160  -18.5590   31.9060 O.2   245  PRO245     -0.2865
    134  CB        -2.1420  -17.4800   30.8550 C.3   245  PRO245      0.0296
    135  CG        -2.7360  -18.1040   29.6310 C.3   245  PRO245      0.0237
    136  CD        -1.5660  -18.6420   28.8190 C.3   245  PRO245      0.0939
    137  N          0.8900  -18.2240   35.1160 N.3   247  ILE247     -0.1245
    138  CA         0.0970  -18.8710   36.1330 C.3   247  ILE247      0.1561
    139  C          0.9030  -18.9080   37.3960 C.2   247  ILE247      0.2260
    140  O          0.5620  -18.1920   38.3210 O.2   247  ILE247     -0.2867
    141  CB        -0.3540  -20.2780   35.7180 C.3   247  ILE247      0.0252
    142  CG1       -1.3520  -20.1400   34.5730 C.3   247  ILE247      0.0019
    143  CG2       -1.0260  -20.9820   36.8890 C.3   247  ILE247      0.0019
    144  CD1       -1.8510  -21.3830   34.0810 C.3   247  ILE247      0.0001
@<TRIPOS>BOND
     1     1     2    1
     2     8     7    2
     3     5     2    1
     4     5     6    1
     5    70    69    2
     6     2     3    1
     7     7     6    1
     8     7     9   am
     9    64    63    1
    10    64    65    1
    11    74    72    1
    12     4     3    2
    13    67    68    1
    14    67    65   am
    15    85    84    2
    16    69    68    1
    17    69    75   am
    18    71    72    1
    19    71    68    1
    20    71    73    1
    21    77    76    1
    22    77    78    2
    23   124   123    1
    24    58    57    2
    25    63    57   am
    26    82    83    1
    27    76    75    1
    28    76    79    1
    29    57    56    1
    30    65    66    2
    31    75    81    1
    32    55    56    1
    33    84    83    1
    34    56    59    1
    35   123   121   ar
    36   123   122   ar
    37    83    86    1
    38   121   119   ar
    39    79    80    1
    40    81    80    1
    41    54    52    1
    42   122   120   ar
    43    59    60    1
    44    86    87    1
    45   119   118   ar
    46    60    62    1
    47    60    61    1
    48    87    88    1
    49    52    53    1
    50    52    51    1
    51   120   118   ar
    52   118   117    1
    53    88    90   am
    54    88    89    2
    55    49    50    2
    56    49    48    1
    57    10    11    1
    58    51    48    1
    59   113   114    1
    60    48    47    1
    61   117   114    1
    62   114   115    1
    63    11    12    1
    64    11    14    1
    65    13    12    2
    66    15    14    1
    67    15    16    1
    68    47    43   am
    69   109   108    2
    70   115   116    2
    71    16    17    1
    72   104   103    1
    73    43    44    2
    74    43    42    1
    75   103   105    1
    76   103   100    1
    77   110   111    1
    78   110   107    1
    79   111   112    1
    80   112   106    1
    81   108   107    1
    82   106   107    1
    83   106   101   am
    84    46    45    1
    85    42    45    1
    86    42    41    1
    87   100   101    1
    88   100    99    1
    89   101   102    2
    90    33    32   ar
    91    33    31   ar
    92    32    30   ar
    93    41    36   am
    94    31    29   ar
    95    99    93   am
    96    94    93    2
    97    30    29   ar
    98    93    92    1
    99    29    28    1
   100   125   126    1
   101    37    36    2
   102    36    35    1
   103    25    26    1
   104    25    28    1
   105    25    24    1
   106    27    26    2
   107    26    34   am
   108    24    20   am
   109    34    35    1
   110   126   129    1
   111   126   127    1
   112    95    92    1
   113    95    96    1
   114    92    91    1
   115    35    38    1
   116    18    19    1
   117    20    19    1
   118    20    21    2
   119   127   128    2
   120   127   130   am
   121   136   130    1
   122   136   135    1
   123    23    22    1
   124    96    97   ar
   125    96    98   ar
   126    38    39    1
   127    38    40    1
   128    19    22    1
   129   130   131    1
   130   135   134    1
   131   131   134    1
   132   131   132    1
   133   132   133    2
   134   144   142    1
   135   142   141    1
   136   137   138    1
   137   141   138    1
   138   141   143    1
   139   138   139    1
   140   139   140    2
