@<TRIPOS>MOLECULE
tmp/2zvmE00.pdb
 153 149 0 0 0
SMALL
GASTEIGER

@<TRIPOS>ATOM
      1  N         61.5700   -3.6770   19.4900 N.3    38  GLN38      -0.1245
      2  CA        61.5070   -4.9900   18.9000 C.3    38  GLN38       0.1566
      3  C         61.4110   -6.0370   19.9760 C.2    38  GLN38       0.2260
      4  O         62.2640   -6.1000   20.8300 O.2    38  GLN38      -0.2867
      5  CB        62.7270   -5.2420   17.9930 C.3    38  GLN38       0.0367
      6  CG        62.7010   -6.6270   17.4720 C.3    38  GLN38       0.0905
      7  CD        63.8550   -6.9190   16.6140 C.2    38  GLN38       0.2608
      8  OE1       64.2790   -6.0570   15.8400 O.2    38  GLN38      -0.2717
      9  NE2       64.3840   -8.1490   16.7160 N.am   38  GLN38      -0.0878
     10  N         59.4010  -10.0250   21.1540 N.3    40  MET40      -0.1245
     11  CA        58.5500  -11.1670   20.9270 C.3    40  MET40       0.1570
     12  C         57.4530  -11.0950   21.9320 C.2    40  MET40       0.2261
     13  O         57.6400  -10.5170   22.9920 O.2    40  MET40      -0.2867
     14  CB        59.3370  -12.4640   21.1170 C.3    40  MET40       0.0387
     15  CG        60.2560  -12.7600   19.9300 C.3    40  MET40       0.0595
     16  SD        60.9950  -14.3920   19.9890 S.3    40  MET40      -0.1393
     17  CE        62.2570  -14.1610   21.2240 C.3    40  MET40       0.0692
     18  N         54.7950  -15.9470   24.3050 N.3    43  SER43      -0.1202
     19  CA        54.8390  -17.2920   23.7690 C.3    43  SER43       0.2020
     20  C         55.8940  -17.4960   22.7040 C.2    43  SER43       0.2619
     21  O         56.0550  -18.6260   22.2550 O.2    43  SER43      -0.2717
     22  CB        53.5080  -17.6420   23.1700 C.3    43  SER43       0.2103
     23  OG        53.2680  -16.8770   21.9910 O.3    43  SER43      -0.2182
     24  N         56.5510  -16.4030   22.2480 N.am   44  HIS44      -0.1961
     25  CA        57.5360  -16.4380   21.1750 C.3    44  HIS44       0.1787
     26  C         56.9890  -16.8550   19.8260 C.2    44  HIS44       0.2620
     27  O         57.7640  -17.2220   18.9150 O.2    44  HIS44      -0.2715
     28  CB        58.6850  -17.3640   21.5470 C.3    44  HIS44       0.0785
     29  CG        59.5910  -16.7840   22.5810 C.ar   44  HIS44       0.0821
     30  ND1       60.9610  -16.8990   22.5140 N.ar   44  HIS44      -0.2267
     31  CD2       59.3210  -16.0290   23.6740 C.ar   44  HIS44       0.1154
     32  CE1       61.4950  -16.2710   23.5470 C.ar   44  HIS44       0.1986
     33  NE2       60.5220  -15.7210   24.2560 N.ar   44  HIS44      -0.2212
     34  N         55.6700  -16.8220   19.6700 N.am   45  VAL45      -0.1963
     35  CA        55.1060  -17.1800   18.3760 C.3    45  VAL45       0.1727
     36  C         55.0950  -15.9840   17.4100 C.2    45  VAL45       0.2617
     37  O         55.2220  -16.1840   16.1920 O.2    45  VAL45      -0.2715
     38  CB        53.7010  -17.7960   18.5000 C.3    45  VAL45       0.0290
     39  CG1       53.2120  -18.2130   17.1120 C.3    45  VAL45       0.0023
     40  CG2       53.7100  -19.0110   19.5000 C.3    45  VAL45       0.0023
     41  N         54.9160  -14.7740   17.9710 N.am   46  SER46      -0.1936
     42  CA        55.0290  -13.5050   17.2520 C.3    46  SER46       0.2055
     43  C         56.1050  -12.5120   17.7610 C.2    46  SER46       0.2642
     44  O         56.5440  -12.5530   18.8920 O.2    46  SER46      -0.2714
     45  CB        53.6550  -12.7640   17.1730 C.3    46  SER46       0.2130
     46  OG        53.2360  -12.1720   18.4050 O.3    46  SER46      -0.2179
     47  N         56.4330  -11.5800   16.8650 N.am   47  LEU47      -0.1977
     48  CA        57.3630  -10.5010   17.0530 C.3    47  LEU47       0.1596
     49  C         56.7540   -9.1740   16.5240 C.2    47  LEU47       0.2287
     50  O         56.1310   -9.1210   15.4490 O.2    47  LEU47      -0.2864
     51  CB        58.6420  -10.8560   16.2990 C.3    47  LEU47       0.0297
     52  CG        59.9000   -9.9680   16.1560 C.3    47  LEU47       0.0022
     53  CD1       59.7210   -8.9650   15.0230 C.3    47  LEU47       0.0001
     54  CD2       60.2540   -9.2650   17.4590 C.3    47  LEU47       0.0001
     55  N         68.8990   -9.3630   24.8990 N.3   124  GLU124     -0.1245
     56  CA        68.6490  -10.4710   23.9710 C.3   124  GLU124      0.1567
     57  C         67.8640  -10.0550   22.7160 C.2   124  GLU124      0.2260
     58  O         66.6860  -10.3700   22.6080 O.2   124  GLU124     -0.2867
     59  CB        67.9210  -11.5730   24.6850 C.3   124  GLU124      0.0388
     60  CG        67.6810  -12.8130   23.8390 C.3   124  GLU124      0.1160
     61  CD        66.9940  -13.9220   24.6120 C.2   124  GLU124      0.3649
     62  OE1       66.6720  -13.7090   25.8000 O.co2 124  GLU124     -0.2457
     63  OE2       66.7770  -15.0070   24.0320 O.co2 124  GLU124     -0.2457
     64  N         67.7920  -10.4170   18.6330 N.3   126  LEU126     -0.1231
     65  CA        68.3160  -11.1000   17.4470 C.3   126  LEU126      0.1693
     66  C         67.8180  -10.4040   16.1870 C.2   126  LEU126      0.2593
     67  O         66.7040   -9.8580   16.1510 O.2   126  LEU126     -0.2718
     68  CB        67.9520  -12.6040   17.4440 C.3   126  LEU126      0.0284
     69  CG        68.8110  -13.5460   18.3320 C.3   126  LEU126      0.0019
     70  CD1       68.4050  -15.0170   18.1700 C.3   126  LEU126      0.0001
     71  CD2       70.3200  -13.3940   18.0400 C.3   126  LEU126      0.0001
     72  N         68.6580  -10.4150   15.1600 N.am  127  GLY127     -0.1942
     73  CA        68.3410   -9.7440   13.9160 C.3   127  GLY127      0.2014
     74  C         67.2070  -10.4190   13.1690 C.2   127  GLY127      0.2639
     75  O         67.1210  -11.6380   13.1340 O.2   127  GLY127     -0.2714
     76  N         66.3250   -9.6060   12.6020 N.am  128  ILE128     -0.1963
     77  CA        65.2940  -10.0580   11.6860 C.3   128  ILE128      0.1712
     78  C         65.8500  -10.1390   10.2570 C.2   128  ILE128      0.2458
     79  O         66.2770   -9.1400    9.7050 O.2   128  ILE128     -0.2730
     80  CB        64.1160   -9.0620   11.6400 C.3   128  ILE128      0.0289
     81  CG1       63.4410   -8.9230   13.0180 C.3   128  ILE128      0.0022
     82  CG2       63.1260   -9.4990   10.5820 C.3   128  ILE128      0.0023
     83  CD1       62.5860   -7.6230   13.1790 C.3   128  ILE128      0.0001
     84  N         65.8150  -11.3310    9.6450 N.am  129  PRO129     -0.2716
     85  CA        66.2640  -11.4350    8.2530 C.3   129  PRO129      0.1536
     86  C         65.6630  -10.4100    7.2690 C.2   129  PRO129      0.2598
     87  O         64.4980  -10.0160    7.3720 O.2   129  PRO129     -0.2715
     88  CB        65.8840  -12.8750    7.8520 C.3   129  PRO129      0.0310
     89  CG        65.9300  -13.6260    9.1280 C.3   129  PRO129      0.0237
     90  CD        65.4180  -12.6440   10.1870 C.3   129  PRO129      0.0939
     91  N         66.5070  -10.0030    6.3310 N.am  130  GLU130     -0.1978
     92  CA        66.1540   -9.1350    5.2180 C.3   130  GLU130      0.1602
     93  C         65.7970  -10.0930    4.0820 C.2   130  GLU130      0.2287
     94  O         66.5670  -10.9880    3.7690 O.2   130  GLU130     -0.2864
     95  CB        67.3840   -8.2830    4.8600 C.3   130  GLU130      0.0415
     96  CG        67.2000   -7.2240    3.7300 C.3   130  GLU130      0.1163
     97  CD        67.1480   -5.7690    4.2360 C.2   130  GLU130      0.3649
     98  OE1       67.0190   -5.5720    5.4630 O.co2 130  GLU130     -0.2457
     99  OE2       67.2180   -4.8310    3.4070 O.co2 130  GLU130     -0.2457
    100  N         57.6430  -21.3920    4.3850 N.3   225  ASP225     -0.1225
    101  CA        58.7160  -21.6160    5.3710 C.3   225  ASP225      0.1805
    102  C         59.2200  -20.3630    6.0760 C.2   225  ASP225      0.2598
    103  O         60.3440  -20.3870    6.6090 O.2   225  ASP225     -0.2718
    104  CB        59.9450  -22.3010    4.7290 C.3   225  ASP225      0.1424
    105  CG        59.5910  -23.4940    3.8500 C.2   225  ASP225      0.3668
    106  OD1       58.6330  -24.2230    4.1500 O.co2 225  ASP225     -0.2456
    107  OD2       60.3150  -23.7130    2.8500 O.co2 225  ASP225     -0.2456
    108  N         58.4230  -19.2790    6.1000 N.am  226  VAL226     -0.1966
    109  CA        58.8170  -18.0560    6.8000 C.3   226  VAL226      0.1712
    110  C         57.6150  -17.3190    7.4280 C.2   226  VAL226      0.2458
    111  O         56.4890  -17.5030    7.0130 O.2   226  VAL226     -0.2730
    112  CB        59.6560  -17.0960    5.8900 C.3   226  VAL226      0.0289
    113  CG1       60.7610  -17.8840    5.1580 C.3   226  VAL226      0.0023
    114  CG2       58.7870  -16.3490    4.8590 C.3   226  VAL226      0.0023
    115  N         57.8720  -16.5270    8.4880 N.am  227  PRO227     -0.2727
    116  CA        56.7850  -15.7370    9.0750 C.3   227  PRO227      0.1402
    117  C         56.0030  -14.8240    8.1080 C.2   227  PRO227      0.2269
    118  O         56.5020  -14.3860    7.0900 O.2   227  PRO227     -0.2865
    119  CB        57.4840  -14.9450   10.1840 C.3   227  PRO227      0.0296
    120  CG        58.7020  -15.8110   10.5590 C.3   227  PRO227      0.0237
    121  CD        59.1370  -16.4060    9.2550 C.3   227  PRO227      0.0939
    122  N         55.3360   -9.8820   12.9930 N.3   243  TYR243     -0.1241
    123  CA        55.6920  -11.1570   12.3530 C.3   243  TYR243      0.1605
    124  C         55.0070  -12.3430   13.0590 C.2   243  TYR243      0.2264
    125  O         54.9360  -12.3860   14.3110 O.2   243  TYR243     -0.2867
    126  CB        57.1890  -11.3360   12.3610 C.3   243  TYR243      0.0534
    127  CG        57.9730  -10.2600   11.6130 C.ar  243  TYR243     -0.0201
    128  CD1       58.6090  -10.5520   10.4160 C.ar  243  TYR243     -0.0009
    129  CD2       58.1400   -8.9740   12.1550 C.ar  243  TYR243     -0.0009
    130  CE1       59.3840   -9.6070    9.7560 C.ar  243  TYR243      0.0417
    131  CE2       58.9010   -7.9790   11.4700 C.ar  243  TYR243      0.0417
    132  CZ        59.5180   -8.3160   10.2810 C.ar  243  TYR243      0.1957
    133  OH        60.2690   -7.4130    9.5890 O.3   243  TYR243     -0.2866
    134  N         54.9260  -16.5410   13.1090 N.3   245  ALA245     -0.1231
    135  CA        55.3920  -17.8580   12.7200 C.3   245  ALA245      0.1679
    136  C         54.2460  -18.7110   12.1340 C.2   245  ALA245      0.2434
    137  O         53.0940  -18.6930   12.6270 O.2   245  ALA245     -0.2733
    138  CB        56.0270  -18.5630   13.8650 C.3   245  ALA245      0.0304
    139  N         54.5520  -19.4700   11.0710 N.am  246  PRO246     -0.2729
    140  CA        53.4930  -20.2930   10.5120 C.3   246  PRO246      0.1401
    141  C         52.9090  -21.2410   11.5510 C.2   246  PRO246      0.2269
    142  O         53.5830  -21.5770   12.5510 O.2   246  PRO246     -0.2865
    143  CB        54.1980  -21.0520    9.3920 C.3   246  PRO246      0.0296
    144  CG        55.6510  -20.9050    9.6440 C.3   246  PRO246      0.0237
    145  CD        55.8310  -19.6520   10.3750 C.3   246  PRO246      0.0939
    146  N         51.7520  -24.7940   12.9680 N.3   248  ILE248     -0.1245
    147  CA        52.3460  -26.1270   12.8060 C.3   248  ILE248      0.1561
    148  C         51.3280  -27.2600   12.8110 C.2   248  ILE248      0.2260
    149  O         51.1120  -27.8860   11.7800 O.2   248  ILE248     -0.2867
    150  CB        53.3350  -26.4530   13.9310 C.3   248  ILE248      0.0252
    151  CG1       54.5050  -25.4860   13.9370 C.3   248  ILE248      0.0019
    152  CG2       53.8680  -27.8740   13.7530 C.3   248  ILE248      0.0019
    153  CD1       55.5640  -25.8450   15.0160 C.3   248  ILE248      0.0001
@<TRIPOS>BOND
     1   107   105   ar
     2    99    97   ar
     3    96    97    1
     4    96    95    1
     5    94    93    2
     6   105   106   ar
     7   105   104    1
     8    93    92    1
     9    97    98   ar
    10   100   101    1
    11   104   101    1
    12   114   112    1
    13    95    92    1
    14   113   112    1
    15    92    91    1
    16   101   102    1
    17   112   109    1
    18   102   108   am
    19   102   103    2
    20   108   109    1
    21    91    86   am
    22   109   110    1
    23   111   110    2
    24   118   117    2
    25    86    87    2
    26    86    85    1
    27   110   115   am
    28    88    85    1
    29    88    89    1
    30   117   116    1
    31    85    84    1
    32   115   116    1
    33   115   121    1
    34   116   119    1
    35    89    90    1
    36   121   120    1
    37   143   144    1
    38   143   140    1
    39   133   132    1
    40   144   145    1
    41    84    90    1
    42    84    78   am
    43    79    78    2
    44   130   132   ar
    45   130   128   ar
    46   119   120    1
    47    78    77    1
    48   132   131   ar
    49   145   139    1
    50   128   127   ar
    51   140   139    1
    52   140   141    1
    53    82    80    1
    54   139   136   am
    55   131   129   ar
    56   141   142    2
    57   127   129   ar
    58   127   126    1
    59    80    77    1
    60    80    81    1
    61    77    76    1
    62   149   148    2
    63   136   137    2
    64   136   135    1
    65   123   126    1
    66   123   122    1
    67   123   124    1
    68    76    74   am
    69   135   134    1
    70   135   138    1
    71   147   148    1
    72   147   146    1
    73   147   150    1
    74    81    83    1
    75   124   125    2
    76    75    74    2
    77    74    73    1
    78   152   150    1
    79    73    72    1
    80   150   151    1
    81   151   153    1
    82    53    52    1
    83    72    66   am
    84    50    49    2
    85     8     7    2
    86    67    66    2
    87    52    51    1
    88    52    54    1
    89    66    65    1
    90    37    36    2
    91    51    48    1
    92    49    48    1
    93     7     9   am
    94     7     6    1
    95    47    48    1
    96    47    43   am
    97    39    38    1
    98    45    42    1
    99    45    46    1
   100    42    43    1
   101    42    41    1
   102    36    41   am
   103    36    35    1
   104    68    65    1
   105    68    69    1
   106    65    64    1
   107     6     5    1
   108    43    44    2
   109     5     2    1
   110    71    69    1
   111    70    69    1
   112    35    38    1
   113    35    34    1
   114    38    40    1
   115     2     1    1
   116     2     3    1
   117    27    26    2
   118    34    26   am
   119    26    25    1
   120    15    16    1
   121    15    14    1
   122     3     4    2
   123    16    17    1
   124    11    14    1
   125    11    10    1
   126    11    12    1
   127    25    28    1
   128    25    24    1
   129    28    29    1
   130    12    13    2
   131    23    22    1
   132    24    20   am
   133    21    20    2
   134    30    29   ar
   135    30    32   ar
   136    29    31   ar
   137    58    57    2
   138    20    19    1
   139    57    56    1
   140    22    19    1
   141    32    33   ar
   142    31    33   ar
   143    19    18    1
   144    60    61    1
   145    60    59    1
   146    56    59    1
   147    56    55    1
   148    63    61   ar
   149    61    62   ar
