@<TRIPOS>MOLECULE
tmp/2zvqA01.pdb
 177 171 0 0 0
SMALL
GASTEIGER

@<TRIPOS>ATOM
      1  N         51.3040  -10.2110    2.6290 N.3    16  PHE16      -0.1241
      2  CA        51.2710  -11.6510    2.9150 C.3    16  PHE16       0.1605
      3  C         50.7900  -12.4100    1.6770 C.2    16  PHE16       0.2264
      4  O         49.9100  -11.9530    0.9430 O.2    16  PHE16      -0.2867
      5  CB        50.3630  -11.9720    4.0970 C.3    16  PHE16       0.0534
      6  CG        50.7230  -11.2390    5.3650 C.ar   16  PHE16      -0.0203
      7  CD1       52.0420  -11.1890    5.8110 C.ar   16  PHE16      -0.0042
      8  CD2       49.7250  -10.6270    6.1120 C.ar   16  PHE16      -0.0042
      9  CE1       52.3710  -10.5000    6.9670 C.ar   16  PHE16      -0.0003
     10  CE2       50.0320   -9.9490    7.2750 C.ar   16  PHE16      -0.0003
     11  CZ        51.3600   -9.8830    7.7040 C.ar   16  PHE16      -0.0000
     12  N         51.3820   -0.5310   10.0720 N.3    42  PRO42      -0.2102
     13  CA        51.4660   -1.3970   11.2480 C.3    42  PRO42       0.1504
     14  C         52.1960   -0.7970   12.4550 C.2    42  PRO42       0.2575
     15  O         53.2160   -0.1190   12.3050 O.2    42  PRO42      -0.2718
     16  CB        52.2320   -2.6080   10.7250 C.3    42  PRO42       0.0282
     17  CG        51.7860   -2.6850    9.2600 C.3    42  PRO42       0.0208
     18  CD        51.6980   -1.2510    8.8180 C.3    42  PRO42       0.0893
     19  N         51.6350   -1.0680   13.6370 N.am   43  LYS43      -0.1980
     20  CA        52.2710   -0.7720   14.9270 C.3    43  LYS43       0.1596
     21  C         52.1580    0.6830   15.3380 C.2    43  LYS43       0.2287
     22  O         52.9100    1.1550   16.1780 O.2    43  LYS43      -0.2864
     23  CB        53.7370   -1.2560   14.9990 C.3    43  LYS43       0.0298
     24  CG        53.9730   -2.6980   14.5140 C.3    43  LYS43       0.0038
     25  CD        52.8790   -3.6930   14.8760 C.3    43  LYS43       0.0206
     26  CE        52.7920   -3.9330   16.3610 C.3    43  LYS43       0.1093
     27  NZ        51.5850   -4.7770   16.6700 N.3    43  LYS43      -0.1314
     28  N         46.7870    1.0460   15.9880 N.3    46  THR46      -0.1218
     29  CA        45.5430    0.5270   15.4190 C.3    46  THR46       0.1862
     30  C         44.5900   -0.0330   16.4780 C.2    46  THR46       0.2287
     31  O         43.3890    0.2650   16.4870 O.2    46  THR46      -0.2866
     32  CB        45.8160   -0.6090   14.4120 C.3    46  THR46       0.1770
     33  OG1       47.0240   -0.3570   13.6740 O.3    46  THR46      -0.2211
     34  CG2       44.6420   -0.7530   13.4490 C.3    46  THR46       0.0375
     35  N         39.7690   -8.2300   17.1480 N.3    71  TYR71      -0.1241
     36  CA        39.9740   -8.5910   15.7420 C.3    71  TYR71       0.1605
     37  C         38.7180   -9.1680   15.0880 C.2    71  TYR71       0.2264
     38  O         38.6960   -9.3920   13.8720 O.2    71  TYR71      -0.2867
     39  CB        41.1990   -9.5020   15.5760 C.3    71  TYR71       0.0534
     40  CG        41.2200  -10.7170   16.4790 C.ar   71  TYR71      -0.0201
     41  CD1       40.5610  -11.8990   16.1070 C.ar   71  TYR71      -0.0009
     42  CD2       41.9280  -10.7100   17.6790 C.ar   71  TYR71      -0.0009
     43  CE1       40.5860  -13.0270   16.9200 C.ar   71  TYR71       0.0417
     44  CE2       41.9630  -11.8410   18.5020 C.ar   71  TYR71       0.0417
     45  CZ        41.2880  -12.9890   18.1090 C.ar   71  TYR71       0.1957
     46  OH        41.3260  -14.1080   18.9220 O.3    71  TYR71      -0.2866
     47  N         40.0650   -6.8190   10.3850 N.3    76  PHE76      -0.1241
     48  CA        41.2280   -6.4560    9.5830 C.3    76  PHE76       0.1605
     49  C         40.8780   -6.8600    8.1470 C.2    76  PHE76       0.2264
     50  O         41.0060   -8.0180    7.7560 O.2    76  PHE76      -0.2867
     51  CB        42.3890   -7.2980   10.1430 C.3    76  PHE76       0.0534
     52  CG        43.7680   -7.0090    9.5690 C.ar   76  PHE76      -0.0203
     53  CD1       43.9880   -6.1910    8.4680 C.ar   76  PHE76      -0.0042
     54  CD2       44.8600   -7.6480   10.1480 C.ar   76  PHE76      -0.0042
     55  CE1       45.2830   -5.9930    7.9770 C.ar   76  PHE76      -0.0003
     56  CE2       46.1420   -7.4750    9.6640 C.ar   76  PHE76      -0.0003
     57  CZ        46.3640   -6.6440    8.5670 C.ar   76  PHE76      -0.0000
     58  N         43.1360   -8.8840    5.5890 N.3    79  LEU79      -0.1245
     59  CA        43.7810  -10.0990    6.0780 C.3    79  LEU79       0.1561
     60  C         42.9150  -11.3280    5.8170 C.2    79  LEU79       0.2260
     61  O         41.8610  -11.5170    6.4440 O.2    79  LEU79      -0.2867
     62  CB        44.1510  -10.0140    7.5680 C.3    79  LEU79       0.0270
     63  CG        44.9810  -11.2080    8.0590 C.3    79  LEU79       0.0019
     64  CD1       46.3520  -11.2370    7.4100 C.3    79  LEU79       0.0001
     65  CD2       45.1130  -11.1730    9.5510 C.3    79  LEU79       0.0001
     66  N         39.2820   -2.0750    9.9070 N.3   101  LYS101     -0.1245
     67  CA        40.7220   -1.8560   10.0580 C.3   101  LYS101      0.1561
     68  C         41.4260   -2.1470    8.7340 C.2   101  LYS101      0.2260
     69  O         41.1130   -3.1380    8.0660 O.2   101  LYS101     -0.2867
     70  CB        41.2860   -2.7640   11.1570 C.3   101  LYS101      0.0271
     71  CG        42.7710   -3.0270   11.0440 C.3   101  LYS101      0.0035
     72  CD        43.2520   -3.9870   12.1230 C.3   101  LYS101      0.0206
     73  CE        44.7090   -4.3540   11.9330 C.3   101  LYS101      0.1093
     74  NZ        45.2100   -5.2700   13.0240 N.3   101  LYS101     -0.1314
     75  N         45.6330   -1.7400    6.8530 N.3   103  HIS103     -0.1241
     76  CA        46.9770   -1.1830    6.8020 C.3   103  HIS103      0.1621
     77  C         47.3810   -0.8550    5.3660 C.2   103  HIS103      0.2264
     78  O         48.5440   -0.5960    5.1060 O.2   103  HIS103     -0.2867
     79  CB        48.0300   -2.1570    7.3270 C.3   103  HIS103      0.0745
     80  CG        47.9110   -2.4960    8.7800 C.ar  103  HIS103      0.0817
     81  ND1       47.7970   -1.5470    9.7780 N.ar  103  HIS103     -0.2268
     82  CD2       48.0010   -3.6930    9.4050 C.ar  103  HIS103      0.1154
     83  CE1       47.7690   -2.1560   10.9540 C.ar  103  HIS103      0.1986
     84  NE2       47.8820   -3.4610   10.7540 N.ar  103  HIS103     -0.2212
     85  N         56.9270   -7.4880   16.8420 N.3   137  PHE137     -0.1241
     86  CA        55.7210   -8.0770   16.2680 C.3   137  PHE137      0.1605
     87  C         56.0400   -9.1260   15.1910 C.2   137  PHE137      0.2264
     88  O         55.4020  -10.1820   15.1440 O.2   137  PHE137     -0.2867
     89  CB        54.8490   -6.9710   15.6850 C.3   137  PHE137      0.0534
     90  CG        53.4550   -7.3980   15.3410 C.ar  137  PHE137     -0.0203
     91  CD1       52.6320   -7.9870   16.2990 C.ar  137  PHE137     -0.0042
     92  CD2       52.9510   -7.1840   14.0540 C.ar  137  PHE137     -0.0042
     93  CE1       51.3250   -8.3690   15.9760 C.ar  137  PHE137     -0.0003
     94  CE2       51.6500   -7.5470   13.7350 C.ar  137  PHE137     -0.0003
     95  CZ        50.8350   -8.1350   14.6960 C.ar  137  PHE137     -0.0000
     96  N         54.2680  -12.6730   15.7360 N.3   141  ALA141     -0.1245
     97  CA        53.1500  -12.8840   14.8210 C.3   141  ALA141      0.1562
     98  C         53.6520  -13.6530   13.5970 C.2   141  ALA141      0.2260
     99  O         54.2810  -13.0890   12.6810 O.2   141  ALA141     -0.2867
    100  CB        52.5170  -11.5480   14.4430 C.3   141  ALA141      0.0290
    101  N         52.6350  -15.0910   10.9190 N.3   143  ILE143     -0.1231
    102  CA        52.3140  -14.8760    9.5070 C.3   143  ILE143      0.1692
    103  C         53.4480  -14.1430    8.7530 C.2   143  ILE143      0.2592
    104  O         53.5940  -14.2950    7.5360 O.2   143  ILE143     -0.2718
    105  CB        50.9320  -14.1660    9.3510 C.3   143  ILE143      0.0266
    106  CG1       50.4080  -14.2290    7.9080 C.3   143  ILE143      0.0019
    107  CG2       50.9740  -12.7210    9.8610 C.3   143  ILE143      0.0020
    108  CD1       50.1210  -15.6300    7.4130 C.3   143  ILE143      0.0001
    109  N         54.2310  -13.3450    9.4830 N.am  144  HIS144     -0.1976
    110  CA        55.3510  -12.5910    8.9120 C.3   144  HIS144      0.1656
    111  C         56.5220  -13.4960    8.5610 C.2   144  HIS144      0.2291
    112  O         56.6780  -14.5490    9.1830 O.2   144  HIS144     -0.2864
    113  CB        55.8410  -11.5550    9.9320 C.3   144  HIS144      0.0771
    114  CG        54.8300  -10.5060   10.2510 C.ar  144  HIS144      0.0820
    115  ND1       53.9670  -10.6080   11.3180 N.ar  144  HIS144     -0.2267
    116  CD2       54.5430   -9.3330    9.6390 C.ar  144  HIS144      0.1154
    117  CE1       53.1820   -9.5410   11.3450 C.ar  144  HIS144      0.1986
    118  NE2       53.5120   -8.7550   10.3350 N.ar  144  HIS144     -0.2212
    119  N         53.4620   -4.5300    4.0850 N.3   164  PHE164     -0.1241
    120  CA        52.7900   -3.2490    3.8210 C.3   164  PHE164      0.1605
    121  C         53.6860   -2.1290    3.3040 C.2   164  PHE164      0.2264
    122  O         53.2290   -1.0130    3.1210 O.2   164  PHE164     -0.2867
    123  CB        51.9000   -2.8030    5.0040 C.3   164  PHE164      0.0534
    124  CG        50.7400   -3.7340    5.2480 C.ar  164  PHE164     -0.0203
    125  CD1       50.7880   -4.6900    6.2640 C.ar  164  PHE164     -0.0042
    126  CD2       49.6080   -3.6850    4.4360 C.ar  164  PHE164     -0.0042
    127  CE1       49.7300   -5.5620    6.4790 C.ar  164  PHE164     -0.0003
    128  CE2       48.5520   -4.5550    4.6350 C.ar  164  PHE164     -0.0003
    129  CZ        48.6150   -5.5000    5.6650 C.ar  164  PHE164     -0.0000
    130  N         44.9630   -9.4950   22.3720 N.3   235  TYR235     -0.1241
    131  CA        45.3250  -10.5410   21.4050 C.3   235  TYR235      0.1605
    132  C         45.6820  -11.8970   22.0160 C.2   235  TYR235      0.2264
    133  O         46.1150  -12.7960   21.2940 O.2   235  TYR235     -0.2867
    134  CB        46.4110  -10.0740   20.4170 C.3   235  TYR235      0.0534
    135  CG        45.8300   -9.2400   19.2950 C.ar  235  TYR235     -0.0201
    136  CD1       45.6660   -7.8600   19.4340 C.ar  235  TYR235     -0.0009
    137  CD2       45.4360   -9.8390   18.1010 C.ar  235  TYR235     -0.0009
    138  CE1       45.1210   -7.0960   18.4130 C.ar  235  TYR235      0.0417
    139  CE2       44.8950   -9.0860   17.0690 C.ar  235  TYR235      0.0417
    140  CZ        44.7390   -7.7230   17.2310 C.ar  235  TYR235      0.1957
    141  OH        44.1880   -6.9860   16.1920 O.3   235  TYR235     -0.2866
    142  N         44.1010  -15.0250   20.4620 N.3   238  MET238     -0.1245
    143  CA        44.6290  -15.4890   19.1750 C.3   238  MET238      0.1570
    144  C         45.1300  -16.9050   19.2550 C.2   238  MET238      0.2261
    145  O         45.7730  -17.2760   20.2390 O.2   238  MET238     -0.2867
    146  CB        45.8460  -14.6580   18.7980 C.3   238  MET238      0.0387
    147  CG        45.5910  -13.6160   17.8100 C.3   238  MET238      0.0595
    148  SD        45.2180  -14.2330   16.1560 S.3   238  MET238     -0.1393
    149  CE        44.2570  -12.7920   15.7580 C.3   238  MET238      0.0692
    150  N         49.3230  -18.5560   15.5040 N.3   242  GLU242     -0.1231
    151  CA        49.3310  -17.2200   14.9010 C.3   242  GLU242      0.1699
    152  C         50.1770  -16.2140   15.6800 C.2   242  GLU242      0.2592
    153  O         50.9110  -15.4200   15.0930 O.2   242  GLU242     -0.2718
    154  CB        47.9030  -16.6750   14.7890 C.3   242  GLU242      0.0402
    155  CG        47.2650  -16.7860   13.4200 C.3   242  GLU242      0.1161
    156  CD        45.9740  -15.9860   13.3250 C.2   242  GLU242      0.3649
    157  OE1       44.9850  -16.3980   13.9570 O.co2 242  GLU242     -0.2457
    158  OE2       45.9460  -14.9450   12.6280 O.co2 242  GLU242     -0.2457
    159  N         50.0390  -16.2250   17.0040 N.am  243  MET243     -0.1979
    160  CA        50.7900  -15.2970   17.8410 C.3   243  MET243      0.1605
    161  C         51.3000  -15.9760   19.0970 C.2   243  MET243      0.2287
    162  O         50.5100  -16.5310   19.8620 O.2   243  MET243     -0.2864
    163  CB        49.9250  -14.1060   18.2490 C.3   243  MET243      0.0413
    164  CG        49.6300  -13.1280   17.1370 C.3   243  MET243      0.0598
    165  SD        48.8510  -11.6500   17.8240 S.3   243  MET243     -0.1393
    166  CE        48.4620  -10.7800   16.3260 C.3   243  MET243      0.0692
    167  N         51.7470   -8.8200   22.6360 N.3   250  PHE250     -0.1241
    168  CA        51.2030   -7.8190   21.7260 C.3   250  PHE250      0.1605
    169  C         51.2160   -6.4420   22.3980 C.2   250  PHE250      0.2264
    170  O         51.6650   -5.4450   21.8110 O.2   250  PHE250     -0.2867
    171  CB        49.7870   -8.1940   21.2590 C.3   250  PHE250      0.0534
    172  CG        49.2600   -7.2740   20.2130 C.ar  250  PHE250     -0.0203
    173  CD1       49.3470   -7.6170   18.8700 C.ar  250  PHE250     -0.0042
    174  CD2       48.7050   -6.0510   20.5660 C.ar  250  PHE250     -0.0042
    175  CE1       48.8780   -6.7420   17.8950 C.ar  250  PHE250     -0.0003
    176  CE2       48.2520   -5.1710   19.6030 C.ar  250  PHE250     -0.0003
    177  CZ        48.3320   -5.5150   18.2740 C.ar  250  PHE250     -0.0000
@<TRIPOS>BOND
     1     4     3    2
     2     3     2    1
     3     1     2    1
     4     2     5    1
     5   122   121    2
     6   121   120    1
     7   120   119    1
     8   120   123    1
     9     5     6    1
    10   126   128   ar
    11   126   124   ar
    12   128   129   ar
    13   123   124    1
    14    78    77    2
    15   124   125   ar
    16     6     7   ar
    17     6     8   ar
    18    77    76    1
    19    58    59    1
    20   129   127   ar
    21     7     9   ar
    22    60    59    1
    23    60    61    2
    24    59    62    1
    25     8    10   ar
    26   125   127   ar
    27    76    75    1
    28    76    79    1
    29     9    11   ar
    30    10    11   ar
    31    79    80    1
    32    64    63    1
    33   108   106    1
    34   104   103    2
    35    62    63    1
    36    50    49    2
    37   106   105    1
    38    55    53   ar
    39    55    57   ar
    40    63    65    1
    41    69    68    2
    42    49    48    1
    43    53    52   ar
    44   111   110    1
    45   111   112    2
    46    57    56   ar
    47    68    67    1
    48   103   109   am
    49   103   102    1
    50    80    82   ar
    51    80    81   ar
    52    18    17    1
    53    18    12    1
    54   110   109    1
    55   110   113    1
    56    17    16    1
    57   105   102    1
    58   105   107    1
    59    82    84   ar
    60   102   101    1
    61    52    51    1
    62    52    54   ar
    63    48    51    1
    64    48    47    1
    65   116   114   ar
    66   116   118   ar
    67    56    54   ar
    68    81    83   ar
    69    66    67    1
    70   113   114    1
    71    67    70    1
    72    12    13    1
    73   114   115   ar
    74   118   117   ar
    75    16    13    1
    76    84    83   ar
    77    71    70    1
    78    71    72    1
    79    13    14    1
    80   115   117   ar
    81    73    72    1
    82    73    74    1
    83    15    14    2
    84    14    19   am
    85   158   156   ar
    86    99    98    2
    87   156   155    1
    88   156   157   ar
    89   155   154    1
    90    34    32    1
    91    98    97    1
    92    19    20    1
    93    33    32    1
    94    94    92   ar
    95    94    95   ar
    96    38    37    2
    97    92    90   ar
    98    32    29    1
    99   100    97    1
   100    24    25    1
   101    24    23    1
   102    95    93   ar
   103   154   151    1
   104    97    96    1
   105    25    26    1
   106   151   150    1
   107   151   152    1
   108    20    23    1
   109    20    21    1
   110    37    36    1
   111   153   152    2
   112    88    87    2
   113    87    86    1
   114    21    22    2
   115    90    89    1
   116    90    91   ar
   117    29    28    1
   118    29    30    1
   119    39    36    1
   120    39    40    1
   121   152   159   am
   122    89    86    1
   123    36    35    1
   124   149   148    1
   125    93    91   ar
   126    41    40   ar
   127    41    43   ar
   128   148   147    1
   129   141   140    1
   130    86    85    1
   131   166   165    1
   132    26    27    1
   133    30    31    2
   134    40    42   ar
   135    43    45   ar
   136   159   160    1
   137   139   140   ar
   138   139   137   ar
   139   164   165    1
   140   164   163    1
   141   140   138   ar
   142    42    44   ar
   143   147   146    1
   144   160   163    1
   145   160   161    1
   146   175   177   ar
   147   175   173   ar
   148   137   135   ar
   149    45    44   ar
   150    45    46    1
   151   177   176   ar
   152   138   136   ar
   153   146   143    1
   154   173   172   ar
   155   161   162    2
   156   143   144    1
   157   143   142    1
   158   144   145    2
   159   135   136   ar
   160   135   134    1
   161   176   174   ar
   162   172   174   ar
   163   172   171    1
   164   134   131    1
   165   171   168    1
   166   133   132    2
   167   131   132    1
   168   131   130    1
   169   168   169    1
   170   168   167    1
   171   170   169    2
