@<TRIPOS>MOLECULE
tmp/2zvqA02.pdb
 119 116 0 0 0
SMALL
GASTEIGER

@<TRIPOS>ATOM
      1  N         52.6230    7.2050   13.7820 N.3   125  ARG125     -0.1231
      2  CA        53.4910    7.1020   14.9520 C.3   125  ARG125      0.1694
      3  C         54.9070    7.3400   14.4600 C.2   125  ARG125      0.2592
      4  O         55.2200    7.0590   13.3010 O.2   125  ARG125     -0.2718
      5  CB        53.3410    5.7000   15.5670 C.3   125  ARG125      0.0321
      6  CG        54.1790    5.4390   16.8080 C.3   125  ARG125      0.0489
      7  CD        53.8580    4.0710   17.3880 C.3   125  ARG125      0.2205
      8  NE        54.3740    3.9360   18.7480 N.pl3 125  ARG125     -0.0865
      9  CZ        54.4450    2.7750   19.3860 C.cat 125  ARG125      0.5346
     10  NH1       54.0930    1.6500   18.7740 N.pl3 125  ARG125      0.1354
     11  NH2       54.8820    2.7210   20.6430 N.pl3 125  ARG125      0.1354
     12  N         55.7810    7.8310   15.3350 N.am  126  ASN126     -0.1974
     13  CA        57.1050    8.1430   14.8520 C.3   126  ASN126      0.1688
     14  C         57.8280    6.8800   14.3910 C.2   126  ASN126      0.2292
     15  O         57.7090    5.7950   14.9670 O.2   126  ASN126     -0.2864
     16  CB        57.8970    8.9740   15.8570 C.3   126  ASN126      0.1181
     17  CG        58.4400    8.1470   16.9880 C.2   126  ASN126      0.2629
     18  OD1       57.8400    8.0690   18.0660 O.2   126  ASN126     -0.2716
     19  ND2       59.5970    7.5330   16.7580 N.am  126  ASN126     -0.0877
     20  N         57.2470    2.7250    5.4500 N.3   167  TRP167     -0.1241
     21  CA        56.5480    3.6180    6.3720 C.3   167  TRP167      0.1605
     22  C         56.4630    5.0200    5.7710 C.2   167  TRP167      0.2264
     23  O         55.4220    5.6950    5.8420 O.2   167  TRP167     -0.2867
     24  CB        57.2950    3.6160    7.7200 C.3   167  TRP167      0.0550
     25  CG        56.7780    4.6130    8.7150 C.ar  167  TRP167      0.0003
     26  CD1       55.8200    4.4050    9.6730 C.ar  167  TRP167      0.0946
     27  CD2       57.1830    5.9820    8.8440 C.ar  167  TRP167      0.0152
     28  NE1       55.6230    5.5580   10.3990 N.ar  167  TRP167     -0.2442
     29  CE2       56.4450    6.5410    9.9060 C.ar  167  TRP167      0.0810
     30  CE3       58.1090    6.7890    8.1650 C.ar  167  TRP167      0.0012
     31  CZ2       56.5850    7.8660   10.2970 C.ar  167  TRP167      0.0191
     32  CZ3       58.2410    8.1120    8.5490 C.ar  167  TRP167      0.0001
     33  CH2       57.4700    8.6430    9.5960 C.ar  167  TRP167      0.0015
     34  N         52.8030    7.0110    5.3500 N.3   171  VAL171     -0.1245
     35  CA        52.3420    8.1780    6.1050 C.3   171  VAL171      0.1561
     36  C         52.2360    9.4210    5.2270 C.2   171  VAL171      0.2260
     37  O         51.3140   10.2110    5.3920 O.2   171  VAL171     -0.2867
     38  CB        53.2020    8.4530    7.3720 C.3   171  VAL171      0.0252
     39  CG1       53.1930    7.2370    8.3080 C.3   171  VAL171      0.0019
     40  CG2       54.6520    8.8360    7.0230 C.3   171  VAL171      0.0019
     41  N         48.0960   11.3470   15.6900 N.3   187  PHE187     -0.1241
     42  CA        49.4390   10.8900   16.0370 C.3   187  PHE187      0.1605
     43  C         49.4270   10.1610   17.3620 C.2   187  PHE187      0.2264
     44  O         48.8660   10.6460   18.3530 O.2   187  PHE187     -0.2867
     45  CB        50.4040   12.0760   16.0860 C.3   187  PHE187      0.0534
     46  CG        50.5560   12.7540   14.7570 C.ar  187  PHE187     -0.0203
     47  CD1       49.6670   13.7370   14.3470 C.ar  187  PHE187     -0.0042
     48  CD2       51.5510   12.3560   13.8810 C.ar  187  PHE187     -0.0042
     49  CE1       49.7940   14.3490   13.0840 C.ar  187  PHE187     -0.0003
     50  CE2       51.6990   12.9620   12.6240 C.ar  187  PHE187     -0.0003
     51  CZ        50.8140   13.9570   12.2210 C.ar  187  PHE187     -0.0000
     52  N         51.6840    9.8350   19.4820 N.3   189  GLU189     -0.1245
     53  CA        52.3220   10.5860   20.5750 C.3   189  GLU189      0.1567
     54  C         51.3940   11.6100   21.2060 C.2   189  GLU189      0.2260
     55  O         51.5000   11.8970   22.4020 O.2   189  GLU189     -0.2867
     56  CB        53.6030   11.2530   20.0790 C.3   189  GLU189      0.0388
     57  CG        54.7020   10.2740   19.6420 C.3   189  GLU189      0.1160
     58  CD        54.4620    9.6060   18.2790 C.2   189  GLU189      0.3649
     59  OE1       53.6850   10.1240   17.4440 O.co2 189  GLU189     -0.2457
     60  OE2       55.0550    8.5300   18.0640 O.co2 189  GLU189     -0.2457
     61  N         66.1420    9.5390    6.9750 N.3   275  TYR275     -0.1241
     62  CA        64.7980   10.0590    7.2320 C.3   275  TYR275      0.1605
     63  C         64.6120   11.4470    6.6380 C.2   275  TYR275      0.2264
     64  O         63.6020   11.7200    5.9730 O.2   275  TYR275     -0.2867
     65  CB        64.5640   10.1080    8.7450 C.3   275  TYR275      0.0534
     66  CG        63.1860   10.5620    9.1750 C.ar  275  TYR275     -0.0201
     67  CD1       62.1820    9.6260    9.4410 C.ar  275  TYR275     -0.0009
     68  CD2       62.8960   11.9180    9.3410 C.ar  275  TYR275     -0.0009
     69  CE1       60.9260   10.0350    9.8530 C.ar  275  TYR275      0.0417
     70  CE2       61.6310   12.3390    9.7420 C.ar  275  TYR275      0.0417
     71  CZ        60.6520   11.3820   10.0000 C.ar  275  TYR275      0.1957
     72  OH        59.3980   11.7700   10.4150 O.3   275  TYR275     -0.2866
     73  N         61.7210   12.5030    3.8570 N.3   279  MET279     -0.1245
     74  CA        60.5640   13.2220    4.3550 C.3   279  MET279      0.1570
     75  C         60.5290   14.6800    3.9060 C.2   279  MET279      0.2261
     76  O         59.6210   15.4300    4.2850 O.2   279  MET279     -0.2867
     77  CB        60.4850   13.0980    5.8800 C.3   279  MET279      0.0387
     78  CG        60.3430   11.6390    6.3540 C.3   279  MET279      0.0595
     79  SD        58.8260   10.8410    5.7640 S.3   279  MET279     -0.1393
     80  CE        57.6370   11.5880    6.8740 C.3   279  MET279      0.0692
     81  N         54.7240   16.8850    6.8950 N.3   284  LEU284     -0.1231
     82  CA        54.5510   16.0910    8.1180 C.3   284  LEU284      0.1693
     83  C         55.5520   16.4190    9.2180 C.2   284  LEU284      0.2592
     84  O         56.7350   16.6010    8.9550 O.2   284  LEU284     -0.2718
     85  CB        54.6220   14.5950    7.8090 C.3   284  LEU284      0.0284
     86  CG        53.2780   13.9030    7.6120 C.3   284  LEU284      0.0019
     87  CD1       53.4970   12.5330    6.9950 C.3   284  LEU284      0.0001
     88  CD2       52.5010   13.7750    8.9340 C.3   284  LEU284      0.0001
     89  N         55.0670   16.4920   10.4520 N.am  285  LYS285     -0.1966
     90  CA        55.9340   16.6960   11.6050 C.3   285  LYS285      0.1728
     91  C         55.6300   15.6530   12.6750 C.2   285  LYS285      0.2616
     92  O         54.4640   15.4300   13.0210 O.2   285  LYS285     -0.2715
     93  CB        55.7670   18.1140   12.1660 C.3   285  LYS285      0.0311
     94  CG        56.5390   19.2030   11.4110 C.3   285  LYS285      0.0038
     95  CD        57.8810   19.5300   12.0760 C.3   285  LYS285      0.0206
     96  CE        57.7050   20.4390   13.2830 C.3   285  LYS285      0.1093
     97  NZ        58.9560   20.5820   14.0780 N.3   285  LYS285     -0.1314
     98  N         56.6790   14.9970   13.1670 N.am  286  PHE286     -0.1960
     99  CA        56.5540   13.9400   14.1720 C.3   286  PHE286      0.1771
    100  C         57.3680   14.2380   15.4280 C.2   286  PHE286      0.2619
    101  O         58.3430   14.9890   15.3900 O.2   286  PHE286     -0.2715
    102  CB        57.0380   12.6050   13.6070 C.3   286  PHE286      0.0574
    103  CG        56.0700   11.9430   12.6720 C.ar  286  PHE286     -0.0200
    104  CD1       56.1030   12.2080   11.3040 C.ar  286  PHE286     -0.0042
    105  CD2       55.1400   11.0270   13.1570 C.ar  286  PHE286     -0.0042
    106  CE1       55.2190   11.5810   10.4350 C.ar  286  PHE286     -0.0003
    107  CE2       54.2530   10.3940   12.2970 C.ar  286  PHE286     -0.0003
    108  CZ        54.2890   10.6710   10.9330 C.ar  286  PHE286     -0.0000
    109  N         56.9750   13.6140   16.5350 N.am  287  ARG287     -0.1977
    110  CA        57.7240   13.7080   17.7880 C.3   287  ARG287      0.1597
    111  C         58.2170   12.3260   18.2160 C.2   287  ARG287      0.2287
    112  O         57.4740   11.3630   18.1640 O.2   287  ARG287     -0.2864
    113  CB        56.8480   14.3020   18.8900 C.3   287  ARG287      0.0334
    114  CG        56.4310   15.7450   18.6590 C.3   287  ARG287      0.0492
    115  CD        55.7820   16.3100   19.9090 C.3   287  ARG287      0.2205
    116  NE        54.4710   15.7150   20.1650 N.pl3 287  ARG287     -0.0865
    117  CZ        53.8110   15.8130   21.3160 C.cat 287  ARG287      0.5346
    118  NH1       52.6220   15.2410   21.4480 N.pl3 287  ARG287      0.1354
    119  NH2       54.3380   16.4750   22.3390 N.pl3 287  ARG287      0.1354
@<TRIPOS>BOND
     1    73    74    1
     2    75    76    2
     3    75    74    1
     4    74    77    1
     5    36    37    2
     6    36    35    1
     7    34    35    1
     8    20    21    1
     9    79    78    1
    10    79    80    1
    11    22    23    2
    12    22    21    1
    13    77    78    1
    14    64    63    2
    15    35    38    1
    16    21    24    1
    17    63    62    1
    18    81    82    1
    19    61    62    1
    20    87    86    1
    21    40    38    1
    22    62    65    1
    23    38    39    1
    24    86    85    1
    25    86    88    1
    26    24    25    1
    27    85    82    1
    28    82    83    1
    29    30    32   ar
    30    30    27   ar
    31    32    33   ar
    32    25    27   ar
    33    25    26   ar
    34    65    66    1
    35    27    29   ar
    36    84    83    2
    37    66    68   ar
    38    66    67   ar
    39    83    89   am
    40    68    70   ar
    41    67    69   ar
    42    33    31   ar
    43    26    28   ar
    44    70    71   ar
    45    69    71   ar
    46    29    31   ar
    47    29    28   ar
    48    71    72    1
    49   106   108   ar
    50   106   104   ar
    51    89    90    1
    52   108   107   ar
    53   104   103   ar
    54    94    95    1
    55    94    93    1
    56    90    93    1
    57    90    91    1
    58    95    96    1
    59    51    50   ar
    60    51    49   ar
    61   107   105   ar
    62    50    48   ar
    63   103   105   ar
    64   103   102    1
    65    91    92    2
    66    91    98   am
    67    49    47   ar
    68    98    99    1
    69    96    97    1
    70     4     3    2
    71   102    99    1
    72     1     2    1
    73    48    46   ar
    74    99   100    1
    75    47    46   ar
    76    14    13    1
    77    14    15    2
    78     3     2    1
    79     3    12   am
    80    46    45    1
    81    13    12    1
    82    13    16    1
    83     2     5    1
    84   101   100    2
    85   100   109   am
    86     5     6    1
    87    41    42    1
    88    16    17    1
    89    42    45    1
    90    42    43    1
    91   109   110    1
    92    19    17   am
    93     6     7    1
    94    17    18    2
    95    43    44    2
    96     7     8    1
    97    59    58   ar
    98   110   111    1
    99   110   113    1
   100    60    58   ar
   101   112   111    2
   102    58    57    1
   103   114   113    1
   104   114   115    1
   105     8     9    2
   106    10     9    1
   107     9    11    1
   108    52    53    1
   109    57    56    1
   110   115   116    1
   111    56    53    1
   112   116   117    2
   113    53    54    1
   114    54    55    2
   115   117   118    1
   116   117   119    1
