@<TRIPOS>MOLECULE
tmp/2zvtA00.pdb
 230 218 0 0 0
SMALL
GASTEIGER

@<TRIPOS>ATOM
      1  N         10.8010   74.6230    4.9570 N.3    62  PHE62      -0.1241
      2  CA        11.3480   74.1790    6.2480 C.3    62  PHE62       0.1605
      3  C         10.7480   74.9480    7.4170 C.2    62  PHE62       0.2264
      4  O         11.4310   75.7460    8.0730 O.2    62  PHE62      -0.2867
      5  CB        12.8700   74.3620    6.2740 C.3    62  PHE62       0.0534
      6  CG        13.6310   73.2630    5.5910 C.ar   62  PHE62      -0.0203
      7  CD1       13.8320   72.0380    6.2290 C.ar   62  PHE62      -0.0042
      8  CD2       14.1460   73.4470    4.3130 C.ar   62  PHE62      -0.0042
      9  CE1       14.5440   71.0090    5.5940 C.ar   62  PHE62      -0.0003
     10  CE2       14.8560   72.4290    3.6680 C.ar   62  PHE62      -0.0003
     11  CZ        15.0560   71.2060    4.3100 C.ar   62  PHE62      -0.0000
     12  N         12.3620   74.9760   11.4840 N.3    65  ILE65      -0.1245
     13  CA        12.9440   73.8560   12.2070 C.3    65  ILE65       0.1561
     14  C         14.2060   74.4520   12.8310 C.2    65  ILE65       0.2260
     15  O         14.8260   73.8800   13.7310 O.2    65  ILE65      -0.2867
     16  CB        13.3250   72.7110   11.2340 C.3    65  ILE65       0.0252
     17  CG1       12.0870   72.2730   10.4490 C.3    65  ILE65       0.0019
     18  CG2       13.9200   71.5380   12.0010 C.3    65  ILE65       0.0019
     19  CD1       12.3400   71.1320    9.4780 C.3    65  ILE65       0.0001
     20  N         22.1410   72.9270    9.8160 N.3    79  ILE79      -0.1231
     21  CA        21.6460   71.5580    9.7210 C.3    79  ILE79       0.1692
     22  C         21.4470   70.9780   11.1120 C.2    79  ILE79       0.2592
     23  O         20.4080   70.3760   11.4020 O.2    79  ILE79      -0.2718
     24  CB        22.6460   70.6580    8.9380 C.3    79  ILE79       0.0266
     25  CG1       22.7770   71.1440    7.4920 C.3    79  ILE79       0.0019
     26  CG2       22.1830   69.2110    8.9540 C.3    79  ILE79       0.0020
     27  CD1       21.4850   71.1130    6.7150 C.3    79  ILE79       0.0001
     28  N         22.4410   71.1790   11.9720 N.am   80  PHE80      -0.1976
     29  CA        22.3950   70.6620   13.3370 C.3    80  PHE80       0.1639
     30  C         21.2770   71.2500   14.1710 C.2    80  PHE80       0.2290
     31  O         20.5040   70.5180   14.7920 O.2    80  PHE80      -0.2864
     32  CB        23.7130   70.9100   14.0690 C.3    80  PHE80       0.0560
     33  CG        23.7810   70.2350   15.4150 C.ar   80  PHE80      -0.0200
     34  CD1       24.0110   68.8610   15.5050 C.ar   80  PHE80      -0.0042
     35  CD2       23.5590   70.9540   16.5820 C.ar   80  PHE80      -0.0042
     36  CE1       24.0150   68.2140   16.7370 C.ar   80  PHE80      -0.0003
     37  CE2       23.5600   70.3150   17.8270 C.ar   80  PHE80      -0.0003
     38  CZ        23.7890   68.9380   17.8990 C.ar   80  PHE80      -0.0000
     39  N         18.7520   72.5510   13.1460 N.3    82  GLY82      -0.1210
     40  CA        17.5300   72.0510   12.5470 C.3    82  GLY82       0.1956
     41  C         17.1780   70.7050   13.1520 C.2    82  GLY82       0.2613
     42  O         16.0630   70.5060   13.6310 O.2    82  GLY82      -0.2717
     43  N         18.1360   69.7830   13.1460 N.am   83  SER83      -0.1938
     44  CA        17.9110   68.4540   13.6990 C.3    83  SER83       0.2055
     45  C         17.4510   68.5610   15.1510 C.2    83  SER83       0.2642
     46  O         16.7120   67.7080   15.6390 O.2    83  SER83      -0.2714
     47  CB        19.1910   67.6180   13.6240 C.3    83  SER83       0.2130
     48  OG        20.1150   67.9880   14.6370 O.3    83  SER83      -0.2179
     49  N         17.8810   69.6260   15.8260 N.am   84  GLN84      -0.1976
     50  CA        17.5170   69.8540   17.2190 C.3    84  GLN84       0.1601
     51  C         16.0570   70.2060   17.3980 C.2    84  GLN84       0.2287
     52  O         15.3540   69.5610   18.1740 O.2    84  GLN84      -0.2864
     53  CB        18.3610   70.9750   17.8340 C.3    84  GLN84       0.0394
     54  CG        19.8110   70.6230   18.1160 C.3    84  GLN84       0.0908
     55  CD        20.4440   71.5770   19.1230 C.2    84  GLN84       0.2608
     56  OE1       20.0470   71.6220   20.2930 O.2    84  GLN84      -0.2717
     57  NE2       21.4250   72.3530   18.6690 N.am   84  GLN84      -0.0878
     58  N         13.7340   69.7360   15.4170 N.3    86  ARG86      -0.1231
     59  CA        12.9090   68.6400   14.9410 C.3    86  ARG86       0.1694
     60  C         12.8540   67.6140   16.0580 C.2    86  ARG86       0.2592
     61  O         11.8100   67.0350   16.3280 O.2    86  ARG86      -0.2718
     62  CB        13.4870   68.0190   13.6660 C.3    86  ARG86       0.0321
     63  CG        12.8550   66.6900   13.3000 C.3    86  ARG86       0.0489
     64  CD        11.3470   66.6750   13.5230 C.3    86  ARG86       0.2205
     65  NE        10.7810   65.3520   13.2770 N.pl3  86  ARG86      -0.0865
     66  CZ         9.5910   64.9600   13.7100 C.cat  86  ARG86       0.5346
     67  NH1        8.8400   65.7900   14.4180 N.pl3  86  ARG86       0.1354
     68  NH2        9.1500   63.7400   13.4330 N.pl3  86  ARG86       0.1354
     69  N         13.9830   67.4100   16.7250 N.am   87  SER87      -0.1952
     70  CA        14.0280   66.4580   17.8300 C.3    87  SER87       0.1924
     71  C         13.0020   66.8680   18.8740 C.2    87  SER87       0.2314
     72  O         12.2140   66.0470   19.3460 O.2    87  SER87      -0.2863
     73  CB        15.4210   66.4420   18.4680 C.3    87  SER87       0.2116
     74  OG        16.3660   65.8490   17.6020 O.3    87  SER87      -0.2180
     75  N          9.7410   66.0080   17.9480 N.3    90  ALA90      -0.1245
     76  CA         9.5820   64.5640   18.0760 C.3    90  ALA90       0.1562
     77  C          9.2720   64.1930   19.5150 C.2    90  ALA90       0.2260
     78  O          8.4900   63.2840   19.7810 O.2    90  ALA90      -0.2867
     79  CB        10.8400   63.8470   17.6080 C.3    90  ALA90       0.0290
     80  N         14.7120   59.5120   23.4290 N.3   121  HIS121     -0.1241
     81  CA        15.7510   59.3900   22.4140 C.3   121  HIS121      0.1621
     82  C         15.8330   57.9860   21.8340 C.2   121  HIS121      0.2264
     83  O         16.0710   57.8150   20.6380 O.2   121  HIS121     -0.2867
     84  CB        17.0930   59.8610   22.9650 C.3   121  HIS121      0.0745
     85  CG        17.2300   61.3500   22.9580 C.ar  121  HIS121      0.0817
     86  ND1       17.4940   62.0620   21.8070 N.ar  121  HIS121     -0.2268
     87  CD2       17.0290   62.2690   23.9300 C.ar  121  HIS121      0.1154
     88  CE1       17.4460   63.3540   22.0720 C.ar  121  HIS121      0.1986
     89  NE2       17.1660   63.5070   23.3530 N.ar  121  HIS121     -0.2212
     90  N         13.1390   58.0110   19.3660 N.3   124  ILE124     -0.1231
     91  CA        13.4520   58.8820   18.2510 C.3   124  ILE124      0.1692
     92  C         14.3000   58.1680   17.2060 C.2   124  ILE124      0.2592
     93  O         14.0430   58.2630   16.0120 O.2   124  ILE124     -0.2718
     94  CB        14.1850   60.1340   18.7590 C.3   124  ILE124      0.0266
     95  CG1       13.1700   61.1380   19.3180 C.3   124  ILE124      0.0019
     96  CG2       15.0230   60.7270   17.6680 C.3   124  ILE124      0.0020
     97  CD1       13.8220   62.3150   20.0310 C.3   124  ILE124      0.0001
     98  N         15.3150   57.4460   17.6560 N.am  125  TYR125     -0.1976
     99  CA        16.1850   56.7390   16.7280 C.3   125  TYR125      0.1639
    100  C         15.4840   55.5300   16.1430 C.2   125  TYR125      0.2290
    101  O         15.7330   55.1560   15.0010 O.2   125  TYR125     -0.2864
    102  CB        17.4850   56.3830   17.4470 C.3   125  TYR125      0.0560
    103  CG        18.2150   57.6510   17.8020 C.ar  125  TYR125     -0.0198
    104  CD1       18.8790   57.8000   19.0190 C.ar  125  TYR125     -0.0009
    105  CD2       18.1790   58.7400   16.9350 C.ar  125  TYR125     -0.0009
    106  CE1       19.4840   59.0170   19.3580 C.ar  125  TYR125      0.0417
    107  CE2       18.7760   59.9440   17.2610 C.ar  125  TYR125      0.0417
    108  CZ        19.4280   60.0840   18.4680 C.ar  125  TYR125      0.1957
    109  OH        20.0350   61.2930   18.7590 O.3   125  TYR125     -0.2866
    110  N         13.1770   57.0470   13.5310 N.3   128  LEU128     -0.1245
    111  CA        13.9480   57.7160   12.4890 C.3   128  LEU128      0.1561
    112  C         14.2850   56.7280   11.3740 C.2   128  LEU128      0.2260
    113  O         14.2920   57.0830   10.1910 O.2   128  LEU128     -0.2867
    114  CB        15.2420   58.2850   13.0730 C.3   128  LEU128      0.0270
    115  CG        16.0990   59.1330   12.1290 C.3   128  LEU128      0.0019
    116  CD1       15.2930   60.3300   11.6390 C.3   128  LEU128      0.0001
    117  CD2       17.3570   59.5920   12.8530 C.3   128  LEU128      0.0001
    118  N         12.3070   56.6070    8.3260 N.3   131  LEU131     -0.1245
    119  CA        12.5320   57.6710    7.3600 C.3   131  LEU131      0.1561
    120  C         13.8630   57.5300    6.6310 C.2   131  LEU131      0.2260
    121  O         14.2150   58.3920    5.8270 O.2   131  LEU131     -0.2867
    122  CB        12.5090   59.0470    8.0430 C.3   131  LEU131      0.0270
    123  CG        11.5500   59.3860    9.1890 C.3   131  LEU131      0.0019
    124  CD1       11.5450   60.9020    9.3730 C.3   131  LEU131      0.0001
    125  CD2       10.1550   58.8950    8.9080 C.3   131  LEU131      0.0001
    126  N         18.0600   60.3010    4.4840 N.3   137  VAL137     -0.1231
    127  CA        16.9300   60.4480    5.3920 C.3   137  VAL137      0.1692
    128  C         15.8990   61.4850    4.9310 C.2   137  VAL137      0.2592
    129  O         16.2570   62.5330    4.4010 O.2   137  VAL137     -0.2718
    130  CB        17.4520   60.8360    6.7960 C.3   137  VAL137      0.0266
    131  CG1       18.2170   62.1510    6.7200 C.3   137  VAL137      0.0020
    132  CG2       16.3150   60.9320    7.7760 C.3   137  VAL137      0.0020
    133  N         14.6180   61.1870    5.1450 N.am  138  LEU138     -0.1966
    134  CA        13.5490   62.1080    4.7690 C.3   138  LEU138      0.1728
    135  C         13.5390   63.2940    5.7340 C.2   138  LEU138      0.2616
    136  O         13.7940   63.1260    6.9240 O.2   138  LEU138     -0.2715
    137  CB        12.1890   61.4050    4.8170 C.3   138  LEU138      0.0311
    138  CG        11.9240   60.3430    3.7470 C.3   138  LEU138      0.0022
    139  CD1       10.5700   59.6990    3.9780 C.3   138  LEU138      0.0001
    140  CD2       11.9820   60.9900    2.3740 C.3   138  LEU138      0.0001
    141  N         13.2440   64.4860    5.2220 N.am  139  ILE139     -0.1977
    142  CA        13.2020   65.6870    6.0590 C.3   139  ILE139      0.1596
    143  C         11.9940   66.5440    5.6960 C.2   139  ILE139      0.2287
    144  O         11.4540   66.4300    4.5960 O.2   139  ILE139     -0.2864
    145  CB        14.4770   66.5470    5.8940 C.3   139  ILE139      0.0276
    146  CG1       14.5600   67.0790    4.4600 C.3   139  ILE139      0.0022
    147  CG2       15.7150   65.7320    6.2440 C.3   139  ILE139      0.0022
    148  CD1       15.7760   67.9120    4.2030 C.3   139  ILE139      0.0001
    149  N         17.6620   64.2010    2.4350 N.3   146  MET146     -0.1245
    150  CA        19.0640   64.5830    2.5340 C.3   146  MET146      0.1570
    151  C         19.9110   63.3190    2.4580 C.2   146  MET146      0.2261
    152  O         19.6880   62.3760    3.2130 O.2   146  MET146     -0.2867
    153  CB        19.3200   65.3110    3.8560 C.3   146  MET146      0.0387
    154  CG        20.6060   66.1040    3.8790 C.3   146  MET146      0.0595
    155  SD        20.6730   67.1740    5.3250 S.3   146  MET146     -0.1393
    156  CE        20.0530   68.6940    4.6210 C.3   146  MET146      0.0692
    157  N         25.6860   64.6400    4.4690 N.3   151  LEU151     -0.1245
    158  CA        25.8420   64.7830    5.9030 C.3   151  LEU151      0.1561
    159  C         27.2500   64.3420    6.3120 C.2   151  LEU151      0.2260
    160  O         28.0100   65.1200    6.8890 O.2   151  LEU151     -0.2867
    161  CB        24.7860   63.9340    6.6260 C.3   151  LEU151      0.0270
    162  CG        23.3570   64.4920    6.5910 C.3   151  LEU151      0.0019
    163  CD1       22.3490   63.4290    6.9880 C.3   151  LEU151      0.0001
    164  CD2       23.2630   65.6910    7.5170 C.3   151  LEU151      0.0001
    165  N         27.5340   62.9860   12.9780 N.3   161  PHE161     -0.1227
    166  CA        26.5100   62.8740   13.9980 C.3   161  PHE161      0.1736
    167  C         25.3280   61.9760   13.6170 C.2   161  PHE161      0.2595
    168  O         24.5890   61.5410   14.4950 O.2   161  PHE161     -0.2718
    169  CB        26.0260   64.2760   14.4450 C.3   161  PHE161      0.0547
    170  CG        24.9710   64.8950   13.5600 C.ar  161  PHE161     -0.0202
    171  CD1       23.6170   64.7610   13.8700 C.ar  161  PHE161     -0.0042
    172  CD2       25.3290   65.6490   12.4450 C.ar  161  PHE161     -0.0042
    173  CE1       22.6370   65.3740   13.0850 C.ar  161  PHE161     -0.0003
    174  CE2       24.3590   66.2650   11.6500 C.ar  161  PHE161     -0.0003
    175  CZ        23.0120   66.1300   11.9680 C.ar  161  PHE161     -0.0000
    176  N         25.1610   61.6880   12.3250 N.am  162  MET162     -0.1979
    177  CA        24.0570   60.8340   11.8610 C.3   162  MET162      0.1605
    178  C         24.4610   59.4200   11.4200 C.2   162  MET162      0.2287
    179  O         23.6160   58.5400   11.3280 O.2   162  MET162     -0.2864
    180  CB        23.2950   61.5100   10.7130 C.3   162  MET162      0.0413
    181  CG        22.4670   62.7310   11.1180 C.3   162  MET162      0.0598
    182  SD        21.2280   62.4470   12.4130 S.3   162  MET162     -0.1393
    183  CE        20.1760   61.2440   11.5940 C.3   162  MET162      0.0692
    184  N         23.2780   56.3570   13.3620 N.3   165  LYS165     -0.1245
    185  CA        21.8430   56.1810   13.1830 C.3   165  LYS165      0.1561
    186  C         21.5850   55.4080   11.8950 C.2   165  LYS165      0.2260
    187  O         20.7680   54.4830   11.8650 O.2   165  LYS165     -0.2867
    188  CB        21.1300   57.5380   13.1310 C.3   165  LYS165      0.0271
    189  CG        21.0060   58.2590   14.4800 C.3   165  LYS165      0.0035
    190  CD        22.3200   58.8420   14.9760 C.3   165  LYS165      0.0206
    191  CE        22.0940   59.6770   16.2420 C.3   165  LYS165      0.1093
    192  NZ        23.3430   60.3220   16.7530 N.3   165  LYS165     -0.1314
    193  N         25.8740   59.5940   21.1550 N.3   247  HIS247     -0.1241
    194  CA        25.3200   60.8540   20.6850 C.3   247  HIS247      0.1621
    195  C         25.5600   61.8990   21.7750 C.2   247  HIS247      0.2264
    196  O         26.0990   62.9810   21.5310 O.2   247  HIS247     -0.2867
    197  CB        23.8210   60.7380   20.4230 C.3   247  HIS247      0.0745
    198  CG        23.1880   62.0340   20.0340 C.ar  247  HIS247      0.0817
    199  ND1       22.9790   63.0570   20.9330 N.ar  247  HIS247     -0.2268
    200  CD2       22.7650   62.4940   18.8350 C.ar  247  HIS247      0.1154
    201  CE1       22.4510   64.0920   20.3040 C.ar  247  HIS247      0.1986
    202  NE2       22.3120   63.7750   19.0300 N.ar  247  HIS247     -0.2212
    203  N         27.7440   65.3130   21.7240 N.3   251  LEU251     -0.1245
    204  CA        27.1130   66.5530   22.1550 C.3   251  LEU251      0.1561
    205  C         28.0080   67.3120   23.1540 C.2   251  LEU251      0.2260
    206  O         28.0830   68.5440   23.1310 O.2   251  LEU251     -0.2867
    207  CB        25.7580   66.2130   22.7690 C.3   251  LEU251      0.0270
    208  CG        24.7230   67.3250   22.8370 C.3   251  LEU251      0.0019
    209  CD1       23.3400   66.7030   22.8520 C.3   251  LEU251      0.0001
    210  CD2       24.9730   68.2030   24.0550 C.3   251  LEU251      0.0001
    211  N         15.9700   69.7070   25.3540 N.3   267  LEU267     -0.1245
    212  CA        16.9770   68.6780   25.1170 C.3   267  LEU267      0.1561
    213  C         18.0310   68.6820   26.2140 C.2   267  LEU267      0.2260
    214  O         18.4570   67.6250   26.6780 O.2   267  LEU267     -0.2867
    215  CB        17.6490   68.9000   23.7600 C.3   267  LEU267      0.0270
    216  CG        17.1670   68.0760   22.5650 C.3   267  LEU267      0.0019
    217  CD1       15.7750   67.5130   22.8110 C.3   267  LEU267      0.0001
    218  CD2       17.2040   68.9540   21.3190 C.3   267  LEU267      0.0001
    219  N         19.0820   65.5640   28.6410 N.3   271  TYR271     -0.1241
    220  CA        20.4370   65.0110   28.7770 C.3   271  TYR271      0.1605
    221  C         21.1140   65.2270   30.1230 C.2   271  TYR271      0.2264
    222  O         22.1670   64.6420   30.3750 O.2   271  TYR271     -0.2867
    223  CB        21.3750   65.5670   27.7100 C.3   271  TYR271      0.0534
    224  CG        20.9630   65.2350   26.3070 C.ar  271  TYR271     -0.0201
    225  CD1       20.6410   63.9240   25.9470 C.ar  271  TYR271     -0.0009
    226  CD2       20.9040   66.2220   25.3360 C.ar  271  TYR271     -0.0009
    227  CE1       20.2700   63.6110   24.6480 C.ar  271  TYR271      0.0417
    228  CE2       20.5340   65.9190   24.0380 C.ar  271  TYR271      0.0417
    229  CZ        20.2190   64.6160   23.7020 C.ar  271  TYR271      0.1957
    230  OH        19.8350   64.3190   22.4200 O.3   271  TYR271     -0.2866
@<TRIPOS>BOND
     1   140   138    1
     2   149   150    1
     3   151   150    1
     4   151   152    2
     5   150   153    1
     6    10    11   ar
     7    10     8   ar
     8   138   139    1
     9   138   137    1
    10   153   154    1
    11   154   155    1
    12   148   146    1
    13    11     9   ar
    14     8     6   ar
    15   129   128    2
    16   146   145    1
    17   157   158    1
    18   126   127    1
    19   144   143    2
    20   156   155    1
    21   134   137    1
    22   134   133    1
    23   134   135    1
    24   128   133   am
    25   128   127    1
    26     1     2    1
    27   141   135   am
    28   141   142    1
    29   127   130    1
    30     6     7   ar
    31     6     5    1
    32     9     7   ar
    33   143   142    1
    34   135   136    2
    35   121   120    2
    36   145   142    1
    37   145   147    1
    38   158   159    1
    39   158   161    1
    40     2     5    1
    41     2     3    1
    42   159   160    2
    43   162   161    1
    44   162   163    1
    45   162   164    1
    46   120   119    1
    47    27    25    1
    48   131   130    1
    49   130   132    1
    50   119   122    1
    51   119   118    1
    52     3     4    2
    53    25    24    1
    54   122   123    1
    55   125   123    1
    56    24    26    1
    57    24    21    1
    58   123   124    1
    59    19    17    1
    60    21    20    1
    61    21    22    1
    62   113   112    2
    63    17    16    1
    64   180   181    1
    65   180   177    1
    66    22    23    2
    67    22    28   am
    68   181   182    1
    69    16    18    1
    70    16    13    1
    71   179   178    2
    72   112   111    1
    73   178   177    1
    74    12    13    1
    75   183   182    1
    76   116   115    1
    77   174   175   ar
    78   174   172   ar
    79   177   176    1
    80   187   186    2
    81   186   185    1
    82   175   173   ar
    83    28    29    1
    84   115   117    1
    85   115   114    1
    86    13    14    1
    87   176   167   am
    88   172   170   ar
    89   111   114    1
    90   111   110    1
    91    40    39    1
    92    40    41    1
    93    14    15    2
    94   165   166    1
    95   173   171   ar
    96   188   185    1
    97   188   189    1
    98    43    41   am
    99    43    44    1
   100    41    42    2
   101   185   184    1
   102    65    64    1
   103    65    66    2
   104    63    64    1
   105    63    62    1
   106    29    32    1
   107    29    30    1
   108    68    66    1
   109   170   171   ar
   110   170   169    1
   111   167   166    1
   112   167   168    2
   113    47    44    1
   114    47    48    1
   115    62    59    1
   116    44    45    1
   117    66    67    1
   118   166   169    1
   119    32    33    1
   120    30    31    2
   121   189   190    1
   122    59    58    1
   123    59    60    1
   124   190   191    1
   125   101   100    2
   126    45    46    2
   127    45    49   am
   128    33    34   ar
   129    33    35   ar
   130    34    36   ar
   131    49    50    1
   132    93    92    2
   133    60    61    2
   134    60    69   am
   135   100    99    1
   136   191   192    1
   137    35    37   ar
   138    69    70    1
   139    99   102    1
   140    99    98    1
   141    36    38   ar
   142   105   107   ar
   143   105   103   ar
   144    92    98   am
   145    92    91    1
   146    50    51    1
   147    50    53    1
   148   107   108   ar
   149    51    52    2
   150   102   103    1
   151    74    73    1
   152    79    76    1
   153    96    94    1
   154   103   104   ar
   155    37    38   ar
   156    70    73    1
   157    70    71    1
   158    53    54    1
   159    75    76    1
   160    76    77    1
   161    54    55    1
   162    91    94    1
   163    91    90    1
   164   108   109    1
   165   108   106   ar
   166    57    55   am
   167    94    95    1
   168   200   202   ar
   169   200   198   ar
   170    71    72    2
   171   104   106   ar
   172   202   201   ar
   173    55    56    2
   174    95    97    1
   175    77    78    2
   176   198   197    1
   177   198   199   ar
   178   201   199   ar
   179   197   194    1
   180    83    82    2
   181   194   193    1
   182   194   195    1
   183   218   216    1
   184   196   195    2
   185   203   204    1
   186    86    88   ar
   187    86    85   ar
   188    82    81    1
   189    88    89   ar
   190   204   207    1
   191   204   205    1
   192    81    84    1
   193    81    80    1
   194   230   229    1
   195   216   217    1
   196   216   215    1
   197   207   208    1
   198   208   209    1
   199   208   210    1
   200    85    84    1
   201    85    87   ar
   202   206   205    2
   203    89    87   ar
   204   229   228   ar
   205   229   227   ar
   206   215   212    1
   207   228   226   ar
   208   227   225   ar
   209   212   211    1
   210   212   213    1
   211   226   224   ar
   212   225   224   ar
   213   213   214    2
   214   224   223    1
   215   223   220    1
   216   219   220    1
   217   220   221    1
   218   221   222    2
