@<TRIPOS>MOLECULE
tmp/2zvwC00.pdb
 192 192 0 0 0
SMALL
GASTEIGER

@<TRIPOS>ATOM
      1  N        209.3020   38.3890  278.2590 N.3    40  MET40      -0.1245
      2  CA       208.5570   39.5160  278.7810 C.3    40  MET40       0.1570
      3  C        209.5450   40.3860  279.5450 C.2    40  MET40       0.2261
      4  O        210.6140   39.9110  279.9280 O.2    40  MET40      -0.2867
      5  CB       207.4880   39.0380  279.7670 C.3    40  MET40       0.0387
      6  CG       206.3930   38.1750  279.1800 C.3    40  MET40       0.0595
      7  SD       205.1730   37.7740  280.4340 S.3    40  MET40      -0.1393
      8  CE       205.9430   36.2670  281.1680 C.3    40  MET40       0.0692
      9  N        208.4170   43.4340  284.5700 N.3    43  SER43      -0.1202
     10  CA       207.0770   43.6360  285.1230 C.3    43  SER43       0.2020
     11  C        206.0010   42.7240  284.5440 C.2    43  SER43       0.2619
     12  O        204.9170   42.5930  285.1190 O.2    43  SER43      -0.2717
     13  CB       206.6360   45.0840  284.8970 C.3    43  SER43       0.2103
     14  OG       207.4750   45.9950  285.5820 O.3    43  SER43      -0.2182
     15  N        206.2980   42.1130  283.4030 N.am   44  HIS44      -0.1961
     16  CA       205.3580   41.2480  282.6990 C.3    44  HIS44       0.1787
     17  C        204.2790   42.0760  281.9980 C.2    44  HIS44       0.2620
     18  O        203.2260   41.5620  281.6140 O.2    44  HIS44      -0.2715
     19  CB       204.7300   40.2140  283.6350 C.3    44  HIS44       0.0785
     20  CG       205.6940   39.1800  284.1290 C.ar   44  HIS44       0.0821
     21  ND1      207.0400   39.2210  283.8420 N.ar   44  HIS44      -0.2267
     22  CD2      205.5030   38.0700  284.8800 C.ar   44  HIS44       0.1154
     23  CE1      207.6380   38.1790  284.3910 C.ar   44  HIS44       0.1986
     24  NE2      206.7270   37.4650  285.0250 N.ar   44  HIS44      -0.2212
     25  N        204.5510   43.3680  281.8490 N.am   45  VAL45      -0.1963
     26  CA       203.6390   44.2760  281.1770 C.3    45  VAL45       0.1727
     27  C        203.7880   44.1620  279.6510 C.2    45  VAL45       0.2616
     28  O        202.7960   44.1780  278.9270 O.2    45  VAL45      -0.2715
     29  CB       203.8840   45.7140  281.6300 C.3    45  VAL45       0.0290
     30  CG1      203.1300   46.6920  280.7460 C.3    45  VAL45       0.0023
     31  CG2      203.4360   45.8690  283.0680 C.3    45  VAL45       0.0023
     32  N        205.0240   44.0030  279.1800 N.am   46  ALA46      -0.1963
     33  CA       205.3090   43.8710  277.7500 C.3    46  ALA46       0.1728
     34  C        205.9480   42.5240  277.4050 C.2    46  ALA46       0.2616
     35  O        206.5360   41.8630  278.2580 O.2    46  ALA46      -0.2715
     36  CB       206.2100   44.9990  277.2920 C.3    46  ALA46       0.0334
     37  N        205.8250   42.1200  276.1480 N.am   47  LEU47      -0.1977
     38  CA       206.4040   40.8690  275.6930 C.3    47  LEU47       0.1596
     39  C        207.0040   41.0740  274.3050 C.2    47  LEU47       0.2287
     40  O        206.4660   41.8400  273.5070 O.2    47  LEU47      -0.2864
     41  CB       205.3270   39.7720  275.6530 C.3    47  LEU47       0.0297
     42  CG       205.7120   38.3550  275.2040 C.3    47  LEU47       0.0022
     43  CD1      204.7030   37.3800  275.7250 C.3    47  LEU47       0.0001
     44  CD2      205.7940   38.2500  273.6790 C.3    47  LEU47       0.0001
     45  N        209.5720   32.4380  281.3130 N.3   124  GLU124     -0.1231
     46  CA       208.1990   32.0160  281.0900 C.3   124  GLU124      0.1699
     47  C        207.7740   32.3200  279.6500 C.2   124  GLU124      0.2592
     48  O        207.8860   33.4640  279.2030 O.2   124  GLU124     -0.2718
     49  CB       207.2920   32.7490  282.0720 C.3   124  GLU124      0.0402
     50  CG       205.8640   32.2680  282.0970 C.3   124  GLU124      0.1161
     51  CD       205.0360   32.9800  283.1480 C.2   124  GLU124      0.3649
     52  OE1      205.6000   33.8110  283.8990 O.co2 124  GLU124     -0.2457
     53  OE2      203.8140   32.7110  283.2250 O.co2 124  GLU124     -0.2457
     54  N        207.3540   31.2890  278.9130 N.am  125  HIS125     -0.1962
     55  CA       206.8880   31.4530  277.5320 C.3   125  HIS125      0.1787
     56  C        205.3680   31.3800  277.4510 C.2   125  HIS125      0.2620
     57  O        204.7550   30.4450  277.9630 O.2   125  HIS125     -0.2715
     58  CB       207.5070   30.4090  276.5990 C.3   125  HIS125      0.0785
     59  CG       208.8320   30.8200  276.0310 C.ar  125  HIS125      0.0821
     60  ND1      209.5160   30.0560  275.1080 N.ar  125  HIS125     -0.2267
     61  CD2      209.5950   31.9180  276.2510 C.ar  125  HIS125      0.1154
     62  CE1      210.6420   30.6660  274.7830 C.ar  125  HIS125      0.1986
     63  NE2      210.7130   31.7970  275.4630 N.ar  125  HIS125     -0.2212
     64  N        204.7670   32.3860  276.8180 N.am  126  LEU126     -0.1963
     65  CA       203.3190   32.4500  276.6840 C.3   126  LEU126      0.1728
     66  C        202.8050   31.9220  275.3490 C.2   126  LEU126      0.2617
     67  O        203.4870   31.9990  274.3230 O.2   126  LEU126     -0.2715
     68  CB       202.8370   33.8820  276.8780 C.3   126  LEU126      0.0311
     69  CG       203.2490   34.6110  278.1570 C.3   126  LEU126      0.0022
     70  CD1      202.5700   35.9670  278.1970 C.3   126  LEU126      0.0001
     71  CD2      202.8840   33.7930  279.3910 C.3   126  LEU126      0.0001
     72  N        201.6010   31.3570  275.3800 N.am  127  GLY127     -0.1940
     73  CA       200.9900   30.8450  274.1690 C.3   127  GLY127      0.2014
     74  C        200.1550   31.9660  273.5890 C.2   127  GLY127      0.2639
     75  O        199.1890   32.4220  274.2160 O.2   127  GLY127     -0.2714
     76  N        200.5600   32.4510  272.4200 N.am  128  ILE128     -0.1963
     77  CA       199.8490   33.5380  271.7640 C.3   128  ILE128      0.1712
     78  C        199.1130   33.0460  270.5340 C.2   128  ILE128      0.2458
     79  O        199.7230   32.6990  269.5200 O.2   128  ILE128     -0.2730
     80  CB       200.7990   34.6620  271.3570 C.3   128  ILE128      0.0289
     81  CG1      201.5880   35.1330  272.5830 C.3   128  ILE128      0.0022
     82  CG2      200.0050   35.8060  270.7400 C.3   128  ILE128      0.0023
     83  CD1      202.7140   36.0930  272.2670 C.3   128  ILE128      0.0001
     84  N        197.7810   32.9900  270.6160 N.am  129  PRO129     -0.2727
     85  CA       196.9860   32.5290  269.4780 C.3   129  PRO129      0.1402
     86  C        196.8840   33.6280  268.4260 C.2   129  PRO129      0.2269
     87  O        196.9400   34.8230  268.7460 O.2   129  PRO129     -0.2865
     88  CB       195.6050   32.2660  270.1030 C.3   129  PRO129      0.0296
     89  CG       195.8570   32.2550  271.6180 C.3   129  PRO129      0.0237
     90  CD       196.9190   33.2890  271.7700 C.3   129  PRO129      0.0939
     91  N        192.7120   41.1510  264.3740 N.3   133  TYR133     -0.1241
     92  CA       192.4530   42.2810  265.2480 C.3   133  TYR133      0.1605
     93  C        191.3980   43.2000  264.6400 C.2   133  TYR133      0.2264
     94  O        191.2250   43.2390  263.4180 O.2   133  TYR133     -0.2867
     95  CB       193.7610   43.0240  265.5370 C.3   133  TYR133      0.0534
     96  CG       194.7530   42.1720  266.2990 C.ar  133  TYR133     -0.0201
     97  CD1      195.5010   41.1900  265.6500 C.ar  133  TYR133     -0.0009
     98  CD2      194.9020   42.3090  267.6820 C.ar  133  TYR133     -0.0009
     99  CE1      196.3660   40.3580  266.3570 C.ar  133  TYR133      0.0417
    100  CE2      195.7650   41.4810  268.4020 C.ar  133  TYR133      0.0417
    101  CZ       196.4920   40.5070  267.7350 C.ar  133  TYR133      0.1957
    102  OH       197.3300   39.6690  268.4500 O.3   133  TYR133     -0.2866
    103  N        200.9780   52.6860  278.2890 N.3   208  ALA208     -0.1245
    104  CA       202.0830   53.4320  278.8820 C.3   208  ALA208      0.1562
    105  C        203.0850   53.7270  277.7640 C.2   208  ALA208      0.2260
    106  O        203.6410   52.8030  277.1730 O.2   208  ALA208     -0.2867
    107  CB       202.7570   52.6090  280.0000 C.3   208  ALA208      0.0290
    108  N        206.7000   52.2710  277.4130 N.3   211  TYR211     -0.1241
    109  CA       206.8930   50.9810  276.7580 C.3   211  TYR211      0.1605
    110  C        206.8660   51.1070  275.2450 C.2   211  TYR211      0.2264
    111  O        207.6550   50.4570  274.5540 O.2   211  TYR211     -0.2867
    112  CB       205.8430   49.9830  277.2260 C.3   211  TYR211      0.0534
    113  CG       206.0740   49.4840  278.6300 C.ar  211  TYR211     -0.0201
    114  CD1      206.9810   48.4600  278.8810 C.ar  211  TYR211     -0.0009
    115  CD2      205.3870   50.0280  279.7040 C.ar  211  TYR211     -0.0009
    116  CE1      207.1960   47.9890  280.1690 C.ar  211  TYR211      0.0417
    117  CE2      205.5950   49.5630  280.9990 C.ar  211  TYR211      0.0417
    118  CZ       206.4980   48.5430  281.2220 C.ar  211  TYR211      0.1957
    119  OH       206.6860   48.0560  282.4970 O.3   211  TYR211     -0.2866
    120  N        189.8340   43.7640  273.7060 N.3   232  GLU232     -0.1231
    121  CA       190.1260   42.9630  274.8910 C.3   232  GLU232      0.1699
    122  C        191.4610   42.2290  274.8190 C.2   232  GLU232      0.2592
    123  O        191.6070   41.1320  275.3580 O.2   232  GLU232     -0.2718
    124  CB       188.9760   41.9680  275.1470 C.3   232  GLU232      0.0402
    125  CG       188.7740   40.7730  274.2690 C.3   232  GLU232      0.1161
    126  CD       188.2060   41.0340  272.9060 C.2   232  GLU232      0.3649
    127  OE1      187.8490   42.2120  272.6280 O.co2 232  GLU232     -0.2457
    128  OE2      188.1420   40.1240  272.0840 O.co2 232  GLU232     -0.2457
    129  N        192.4520   42.8530  274.1960 N.am  233  LEU233     -0.1966
    130  CA       193.7550   42.2160  274.0580 C.3   233  LEU233      0.1713
    131  C        194.9130   43.2140  274.0530 C.2   233  LEU233      0.2458
    132  O        194.7160   44.4210  273.9180 O.2   233  LEU233     -0.2730
    133  CB       193.7990   41.3960  272.7570 C.3   233  LEU233      0.0310
    134  CG       192.8180   40.2370  272.5080 C.3   233  LEU233      0.0022
    135  CD1      193.0640   39.6260  271.1230 C.3   233  LEU233      0.0001
    136  CD2      192.9650   39.1710  273.5890 C.3   233  LEU233      0.0001
    137  N        196.1310   42.7230  274.3120 N.am  234  PRO234     -0.2727
    138  CA       197.2960   43.6070  274.3060 C.3   234  PRO234      0.1402
    139  C        197.5190   44.0230  272.8520 C.2   234  PRO234      0.2269
    140  O        197.2190   43.2630  271.9290 O.2   234  PRO234     -0.2865
    141  CB       198.4230   42.6810  274.7730 C.3   234  PRO234      0.0296
    142  CG       197.7180   41.7160  275.6610 C.3   234  PRO234      0.0237
    143  CD       196.4840   41.4030  274.8610 C.3   234  PRO234      0.0939
    144  N        204.3820   43.1350  272.2900 N.3   250  TYR250     -0.1227
    145  CA       203.0440   43.0410  272.8660 C.3   250  TYR250      0.1736
    146  C        203.0130   43.9120  274.1120 C.2   250  TYR250      0.2595
    147  O        203.9460   43.8930  274.9140 O.2   250  TYR250     -0.2718
    148  CB       202.7110   41.5970  273.2320 C.3   250  TYR250      0.0548
    149  CG       202.6400   40.6730  272.0430 C.ar  250  TYR250     -0.0200
    150  CD1      203.7980   40.2390  271.4020 C.ar  250  TYR250     -0.0009
    151  CD2      201.4150   40.2390  271.5500 C.ar  250  TYR250     -0.0009
    152  CE1      203.7370   39.3950  270.3020 C.ar  250  TYR250      0.0417
    153  CE2      201.3420   39.3930  270.4470 C.ar  250  TYR250      0.0417
    154  CZ       202.5060   38.9760  269.8320 C.ar  250  TYR250      0.1957
    155  OH       202.4380   38.1290  268.7520 O.3   250  TYR250     -0.2866
    156  N        201.9590   44.7020  274.2620 N.am  251  LEU251     -0.1966
    157  CA       201.8630   45.5680  275.4190 C.3   251  LEU251      0.1728
    158  C        200.4830   45.5220  276.0590 C.2   251  LEU251      0.2616
    159  O        199.4920   45.9270  275.4460 O.2   251  LEU251     -0.2715
    160  CB       202.2080   47.0060  275.0280 C.3   251  LEU251      0.0311
    161  CG       202.1860   47.9870  276.1940 C.3   251  LEU251      0.0022
    162  CD1      203.2090   47.5490  277.2320 C.3   251  LEU251      0.0001
    163  CD2      202.4510   49.4060  275.7130 C.3   251  LEU251      0.0001
    164  N        200.4260   45.0410  277.3000 N.am  252  ALA252     -0.1964
    165  CA       199.1660   44.9560  278.0340 C.3   252  ALA252      0.1713
    166  C        198.6130   46.3540  278.2120 C.2   252  ALA252      0.2458
    167  O        199.3720   47.3020  278.3950 O.2   252  ALA252     -0.2730
    168  CB       199.3820   44.3090  279.3830 C.3   252  ALA252      0.0333
    169  N        197.2830   46.5060  278.1210 N.am  253  PRO253     -0.2716
    170  CA       196.6180   47.8040  278.2700 C.3   253  PRO253      0.1536
    171  C        196.3690   48.2390  279.7130 C.2   253  PRO253      0.2598
    172  O        196.5810   47.4740  280.6620 O.2   253  PRO253     -0.2715
    173  CB       195.2910   47.5750  277.5490 C.3   253  PRO253      0.0310
    174  CG       194.9870   46.1490  277.8860 C.3   253  PRO253      0.0237
    175  CD       196.3270   45.4810  277.6630 C.3   253  PRO253      0.0939
    176  N        195.9170   49.4820  279.8540 N.am  254  LYS254     -0.1964
    177  CA       195.5790   50.0600  281.1420 C.3   254  LYS254      0.1728
    178  C        194.0610   50.1280  281.1400 C.2   254  LYS254      0.2616
    179  O        193.4680   50.8930  280.3720 O.2   254  LYS254     -0.2715
    180  CB       196.1400   51.4740  281.2740 C.3   254  LYS254      0.0311
    181  CG       197.6490   51.5660  281.3230 C.3   254  LYS254      0.0038
    182  CD       198.0600   52.9670  281.7260 C.3   254  LYS254      0.0206
    183  CE       199.5600   53.0840  281.8930 C.3   254  LYS254      0.1093
    184  NZ       199.9480   54.4450  282.3870 N.3   254  LYS254     -0.1314
    185  N        193.4310   49.3070  281.9730 N.am  255  ILE255     -0.1977
    186  CA       191.9760   49.2690  282.0410 C.3   255  ILE255      0.1596
    187  C        191.4610   49.7120  283.4150 C.2   255  ILE255      0.2287
    188  O        191.2620   48.8440  284.2970 O.2   255  ILE255     -0.2864
    189  CB       191.4640   47.8540  281.6720 C.3   255  ILE255      0.0276
    190  CG1      191.9850   47.4710  280.2790 C.3   255  ILE255      0.0022
    191  CG2      189.9340   47.8110  281.7070 C.3   255  ILE255      0.0022
    192  CD1      191.5300   46.1080  279.7760 C.3   255  ILE255      0.0001
@<TRIPOS>BOND
     1    94    93    2
     2    91    92    1
     3    93    92    1
     4    92    95    1
     5    95    96    1
     6    97    96   ar
     7    97    99   ar
     8    96    98   ar
     9    99   101   ar
    10    98   100   ar
    11   101   100   ar
    12   101   102    1
    13    86    87    2
    14    86    85    1
    15   155   154    1
    16    85    88    1
    17    85    84    1
    18    79    78    2
    19   154   152   ar
    20   154   153   ar
    21    88    89    1
    22   152   150   ar
    23   153   151   ar
    24    78    84   am
    25    78    77    1
    26    84    90    1
    27    82    80    1
    28   135   134    1
    29    80    77    1
    30    80    81    1
    31   150   149   ar
    32   151   149   ar
    33    89    90    1
    34    77    76    1
    35   140   139    2
    36   149   148    1
    37   128   126   ar
    38    83    81    1
    39   144   145    1
    40    76    74   am
    41   134   133    1
    42   134   136    1
    43   127   126   ar
    44   133   130    1
    45   139   138    1
    46   145   148    1
    47   145   146    1
    48   126   125    1
    49    40    39    2
    50    74    73    1
    51    74    75    2
    52    44    42    1
    53   120   121    1
    54   132   131    2
    55   131   130    1
    56   131   137   am
    57   130   129    1
    58   146   156   am
    59   146   147    2
    60    73    72    1
    61   129   122   am
    62   156   157    1
    63   125   124    1
    64    39    38    1
    65   138   137    1
    66   138   141    1
    67   137   143    1
    68    67    66    2
    69   111   110    2
    70   141   142    1
    71    62    60   ar
    72    62    63   ar
    73   122   121    1
    74   122   123    2
    75   143   142    1
    76   121   124    1
    77   160   157    1
    78   160   161    1
    79    60    59   ar
    80    42    41    1
    81    42    43    1
    82   110   109    1
    83    66    72   am
    84    66    65    1
    85   157   158    1
    86   159   158    2
    87    63    61   ar
    88    41    38    1
    89    38    37    1
    90   163   161    1
    91    59    61   ar
    92    59    58    1
    93   158   164   am
    94    37    34   am
    95   161   162    1
    96    58    55    1
    97    65    64    1
    98    65    68    1
    99   109   112    1
   100   109   108    1
   101    64    56   am
   102    68    69    1
   103   106   105    2
   104   112   113    1
   105    36    33    1
   106   164   165    1
   107    34    33    1
   108    34    35    2
   109    56    55    1
   110    56    57    2
   111    55    54    1
   112   173   174    1
   113   173   170    1
   114   175   174    1
   115   175   169    1
   116    33    32    1
   117   105   104    1
   118   165   166    1
   119   165   168    1
   120   169   166   am
   121   169   170    1
   122    69    70    1
   123    69    71    1
   124   166   167    2
   125     1     2    1
   126   170   171    1
   127   103   104    1
   128   113   114   ar
   129   113   115   ar
   130     2     3    1
   131     2     5    1
   132   114   116   ar
   133   104   107    1
   134    54    47   am
   135    28    27    2
   136    32    27   am
   137     6     5    1
   138     6     7    1
   139    48    47    2
   140     3     4    2
   141    47    46    1
   142    27    26    1
   143   115   117   ar
   144   171   176   am
   145   171   172    2
   146   192   190    1
   147   176   177    1
   148   116   118   ar
   149   190   189    1
   150   179   178    2
   151     7     8    1
   152    30    29    1
   153   117   118   ar
   154    46    45    1
   155    46    49    1
   156   178   177    1
   157   178   185   am
   158   177   180    1
   159    26    29    1
   160    26    25    1
   161   118   119    1
   162   180   181    1
   163   181   182    1
   164    18    17    2
   165    29    31    1
   166   189   191    1
   167   189   186    1
   168   182   183    1
   169    25    17   am
   170   183   184    1
   171   185   186    1
   172    17    16    1
   173   186   187    1
   174    49    50    1
   175    50    51    1
   176    16    15    1
   177    16    19    1
   178    51    53   ar
   179    51    52   ar
   180    15    11   am
   181   187   188    2
   182    19    20    1
   183    21    20   ar
   184    21    23   ar
   185    20    22   ar
   186    23    24   ar
   187    11    12    2
   188    11    10    1
   189     9    10    1
   190    22    24   ar
   191    13    10    1
   192    13    14    1
