@<TRIPOS>MOLECULE
tmp/2zw5B00.pdb
 248 251 0 0 0
SMALL
GASTEIGER

@<TRIPOS>ATOM
      1  N         65.0540   42.8600  115.0180 N.3     8  ARG8       -0.1245
      2  CA        64.0180   43.0000  116.0320 C.3     8  ARG8        0.1563
      3  C         64.3540   42.1800  117.2660 C.2     8  ARG8        0.2260
      4  O         64.4970   42.7130  118.3730 O.2     8  ARG8       -0.2867
      5  CB        62.6770   42.5210  115.4880 C.3     8  ARG8        0.0307
      6  CG        61.6150   43.5800  115.4530 C.3     8  ARG8        0.0489
      7  CD        60.7770   43.4130  114.2140 C.3     8  ARG8        0.2205
      8  NE        59.4780   42.8440  114.5320 N.pl3   8  ARG8       -0.0865
      9  CZ        58.9310   41.8360  113.8690 C.cat   8  ARG8        0.5346
     10  NH1       59.5810   41.2870  112.8500 N.pl3   8  ARG8        0.1354
     11  NH2       57.7360   41.3860  114.2240 N.pl3   8  ARG8        0.1354
     12  N         47.0210   24.1170  123.4640 N.3    31  GLU31      -0.1231
     13  CA        46.7520   24.5790  122.1050 C.3    31  GLU31       0.1699
     14  C         48.0460   24.7370  121.3020 C.2    31  GLU31       0.2592
     15  O         48.0400   24.6510  120.0740 O.2    31  GLU31      -0.2718
     16  CB        45.9940   25.9110  122.1430 C.3    31  GLU31       0.0402
     17  CG        45.1890   26.2250  120.8870 C.3    31  GLU31       0.1161
     18  CD        44.7530   27.6800  120.8270 C.2    31  GLU31       0.3649
     19  OE1       45.1500   28.3870  119.8730 O.co2  31  GLU31      -0.2457
     20  OE2       44.0160   28.1150  121.7400 O.co2  31  GLU31      -0.2457
     21  N         49.1540   24.9600  122.0000 N.am   32  VAL32      -0.1980
     22  CA        50.4460   25.1340  121.3500 C.3    32  VAL32       0.1595
     23  C         51.1890   23.8090  121.1810 C.2    32  VAL32       0.2287
     24  O         52.0010   23.6530  120.2650 O.2    32  VAL32      -0.2864
     25  CB        51.3420   26.1070  122.1620 C.3    32  VAL32       0.0276
     26  CG1       52.6910   26.2810  121.4880 C.3    32  VAL32       0.0022
     27  CG2       50.6530   27.4480  122.2980 C.3    32  VAL32       0.0022
     28  N         50.5210   20.0680  118.1000 N.3    35  TRP35      -0.1227
     29  CA        51.2970   19.5560  116.9790 C.3    35  TRP35       0.1737
     30  C         52.6600   19.0640  117.4430 C.2    35  TRP35       0.2595
     31  O         53.4430   18.5430  116.6510 O.2    35  TRP35      -0.2718
     32  CB        51.4840   20.6460  115.9210 C.3    35  TRP35       0.0564
     33  CG        50.2020   21.1460  115.3320 C.ar   35  TRP35       0.0003
     34  CD1       49.6590   22.3900  115.4870 C.ar   35  TRP35       0.0946
     35  CD2       49.2940   20.4110  114.5060 C.ar   35  TRP35       0.0152
     36  NE1       48.4670   22.4730  114.8090 N.ar   35  TRP35      -0.2442
     37  CE2       48.2200   21.2720  114.1980 C.ar   35  TRP35       0.0810
     38  CE3       49.2830   19.1060  113.9950 C.ar   35  TRP35       0.0012
     39  CZ2       47.1420   20.8690  113.4000 C.ar   35  TRP35       0.0191
     40  CZ3       48.2100   18.7060  113.2010 C.ar   35  TRP35       0.0001
     41  CH2       47.1570   19.5850  112.9120 C.ar   35  TRP35       0.0015
     42  N         52.9420   19.2320  118.7300 N.am   36  TRP36      -0.1976
     43  CA        54.2200   18.8060  119.2780 C.3    36  TRP36       0.1640
     44  C         54.3990   17.2940  119.2460 C.2    36  TRP36       0.2290
     45  O         53.4730   16.5410  118.9260 O.2    36  TRP36      -0.2864
     46  CB        54.3860   19.3010  120.7210 C.3    36  TRP36       0.0576
     47  CG        55.8120   19.6150  121.0550 C.ar   36  TRP36       0.0006
     48  CD1       56.5830   19.0290  122.0180 C.ar   36  TRP36       0.0946
     49  CD2       56.6600   20.5500  120.3740 C.ar   36  TRP36       0.0152
     50  NE1       57.8610   19.5370  121.9760 N.ar   36  TRP36      -0.2442
     51  CE2       57.9360   20.4720  120.9760 C.ar   36  TRP36       0.0810
     52  CE3       56.4640   21.4460  119.3070 C.ar   36  TRP36       0.0012
     53  CZ2       59.0130   21.2550  120.5500 C.ar   36  TRP36       0.0191
     54  CZ3       57.5320   22.2250  118.8800 C.ar   36  TRP36       0.0001
     55  CH2       58.7940   22.1230  119.5030 C.ar   36  TRP36       0.0015
     56  N         65.0740   21.2390  112.4930 N.3    87  LEU87      -0.1231
     57  CA        64.6010   22.5610  112.8830 C.3    87  LEU87       0.1693
     58  C         63.4060   22.4910  113.8190 C.2    87  LEU87       0.2593
     59  O         62.5050   21.6820  113.6250 O.2    87  LEU87      -0.2718
     60  CB        64.2050   23.3620  111.6380 C.3    87  LEU87       0.0284
     61  CG        65.1820   24.3190  110.9440 C.3    87  LEU87       0.0019
     62  CD1       64.5050   25.6680  110.7890 C.3    87  LEU87       0.0001
     63  CD2       66.4730   24.4670  111.7340 C.3    87  LEU87       0.0001
     64  N         63.4110   23.3420  114.8410 N.am   88  THR88      -0.1939
     65  CA        62.3090   23.4100  115.7990 C.3    88  THR88       0.2028
     66  C         61.9620   24.8610  116.0550 C.2    88  THR88       0.2642
     67  O         62.7680   25.7700  115.8100 O.2    88  THR88      -0.2714
     68  CB        62.6400   22.8220  117.1880 C.3    88  THR88       0.1808
     69  OG1       63.9830   22.3320  117.2080 O.3    88  THR88      -0.2208
     70  CG2       61.6520   21.7270  117.5520 C.3    88  THR88       0.0379
     71  N         60.7560   25.0570  116.5730 N.am   89  TRP89      -0.1959
     72  CA        60.2680   26.3730  116.8960 C.3    89  TRP89       0.1771
     73  C         58.8330   26.2860  117.3730 C.2    89  TRP89       0.2620
     74  O         58.0690   25.4260  116.9470 O.2    89  TRP89      -0.2715
     75  CB        60.4010   27.2950  115.6810 C.3    89  TRP89       0.0590
     76  CG        59.5200   26.9800  114.4910 C.ar   89  TRP89       0.0006
     77  CD1       58.1630   27.1290  114.4100 C.ar   89  TRP89       0.0946
     78  CD2       59.9510   26.5890  113.1790 C.ar   89  TRP89       0.0152
     79  NE1       57.7250   26.8660  113.1360 N.ar   89  TRP89      -0.2442
     80  CE2       58.8020   26.5320  112.3590 C.ar   89  TRP89       0.0810
     81  CE3       61.1980   26.2850  112.6170 C.ar   89  TRP89       0.0012
     82  CZ2       58.8620   26.1830  111.0080 C.ar   89  TRP89       0.0191
     83  CZ3       61.2560   25.9390  111.2740 C.ar   89  TRP89       0.0001
     84  CH2       60.0920   25.8920  110.4850 C.ar   89  TRP89       0.0015
     85  N         58.4910   27.1630  118.3010 N.am   90  LEU90      -0.1963
     86  CA        57.1480   27.2320  118.8410 C.3    90  LEU90       0.1728
     87  C         57.0460   28.5260  119.6350 C.2    90  LEU90       0.2616
     88  O         58.0410   29.0010  120.1790 O.2    90  LEU90      -0.2715
     89  CB        56.8670   26.0270  119.7370 C.3    90  LEU90       0.0311
     90  CG        57.1320   26.1670  121.2370 C.3    90  LEU90       0.0022
     91  CD1       56.6650   24.9090  121.9530 C.3    90  LEU90       0.0001
     92  CD2       58.6180   26.3870  121.4780 C.3    90  LEU90       0.0001
     93  N         55.8540   29.1120  119.6690 N.am   91  LEU91      -0.1977
     94  CA        55.6320   30.3530  120.4120 C.3    91  LEU91       0.1596
     95  C         54.3990   30.1880  121.2930 C.2    91  LEU91       0.2287
     96  O         53.5880   29.2850  121.0700 O.2    91  LEU91      -0.2864
     97  CB        55.4070   31.5280  119.4580 C.3    91  LEU91       0.0297
     98  CG        56.4970   31.8670  118.4500 C.3    91  LEU91       0.0022
     99  CD1       56.0460   33.0470  117.6140 C.3    91  LEU91       0.0001
    100  CD2       57.7880   32.1900  119.1730 C.3    91  LEU91       0.0001
    101  N         51.8960   35.1680  121.5540 N.3    95  SER95      -0.1202
    102  CA        52.9700   35.6920  120.7310 C.3    95  SER95       0.2020
    103  C         52.8010   35.3500  119.2540 C.2    95  SER95       0.2619
    104  O         53.7380   35.4940  118.4680 O.2    95  SER95      -0.2717
    105  CB        54.3140   35.1740  121.2490 C.3    95  SER95       0.2103
    106  OG        54.7410   35.9440  122.3560 O.3    95  SER95      -0.2182
    107  N         51.6100   34.9040  118.8690 N.am   96  TRP96      -0.1961
    108  CA        51.3730   34.5540  117.4720 C.3    96  TRP96       0.1771
    109  C         50.9540   35.7850  116.6860 C.2    96  TRP96       0.2620
    110  O         50.3010   36.6750  117.2210 O.2    96  TRP96      -0.2715
    111  CB        50.2740   33.4930  117.3570 C.3    96  TRP96       0.0590
    112  CG        50.6520   32.1240  117.8610 C.ar   96  TRP96       0.0006
    113  CD1       51.7850   31.7800  118.5490 C.ar   96  TRP96       0.0946
    114  CD2       49.8830   30.9200  117.7340 C.ar   96  TRP96       0.0152
    115  NE1       51.7640   30.4410  118.8570 N.ar   96  TRP96      -0.2442
    116  CE2       50.6080   29.8890  118.3700 C.ar   96  TRP96       0.0810
    117  CE3       48.6520   30.6120  117.1450 C.ar   96  TRP96       0.0012
    118  CZ2       50.1400   28.5710  118.4350 C.ar   96  TRP96       0.0191
    119  CZ3       48.1860   29.2970  117.2120 C.ar   96  TRP96       0.0001
    120  CH2       48.9300   28.2960  117.8530 C.ar   96  TRP96       0.0015
    121  N         51.3430   35.8410  115.4200 N.am   97  GLY97      -0.1940
    122  CA        50.9480   36.9590  114.5860 C.3    97  GLY97       0.2014
    123  C         51.8610   38.1630  114.5230 C.2    97  GLY97       0.2639
    124  O         51.3870   39.2600  114.2200 O.2    97  GLY97      -0.2714
    125  N         53.1530   37.9900  114.7910 N.am   98  HIS98      -0.1959
    126  CA        54.0570   39.1260  114.7230 C.3    98  HIS98       0.1787
    127  C         55.2580   38.8390  113.8470 C.2    98  HIS98       0.2621
    128  O         56.1920   39.6370  113.7910 O.2    98  HIS98      -0.2715
    129  CB        54.5500   39.5270  116.1090 C.3    98  HIS98       0.0785
    130  CG        53.4610   39.8120  117.0970 C.ar   98  HIS98       0.0821
    131  ND1       52.7020   38.8180  117.6790 N.ar   98  HIS98      -0.2267
    132  CD2       53.0690   40.9690  117.6780 C.ar   98  HIS98       0.1154
    133  CE1       51.8910   39.3500  118.5790 C.ar   98  HIS98       0.1986
    134  NE2       52.0950   40.6550  118.5990 N.ar   98  HIS98      -0.2212
    135  N         55.2420   37.7020  113.1600 N.am   99  GLY99      -0.1940
    136  CA        56.3590   37.3540  112.2920 C.3    99  GLY99       0.2014
    137  C         57.6180   37.0160  113.0650 C.2    99  GLY99       0.2639
    138  O         58.7270   37.1140  112.5410 O.2    99  GLY99      -0.2714
    139  N         57.4250   36.6250  114.3200 N.am  100  TYR100     -0.1959
    140  CA        58.5080   36.2510  115.2170 C.3   100  TYR100      0.1771
    141  C         59.1400   34.9200  114.8170 C.2   100  TYR100      0.2619
    142  O         60.3570   34.8320  114.6190 O.2   100  TYR100     -0.2715
    143  CB        57.9710   36.1340  116.6370 C.3   100  TYR100      0.0574
    144  CG        57.6770   37.4540  117.2870 C.ar  100  TYR100     -0.0198
    145  CD1       58.2450   38.6330  116.8030 C.ar  100  TYR100     -0.0009
    146  CD2       56.8420   37.5240  118.4020 C.ar  100  TYR100     -0.0009
    147  CE1       57.9830   39.8530  117.4190 C.ar  100  TYR100      0.0417
    148  CE2       56.5740   38.7390  119.0250 C.ar  100  TYR100      0.0417
    149  CZ        57.1440   39.9010  118.5310 C.ar  100  TYR100      0.1957
    150  OH        56.8560   41.1070  119.1380 O.3   100  TYR100     -0.2866
    151  N         58.3040   33.8860  114.7190 N.am  101  ALA101     -0.1963
    152  CA        58.7540   32.5480  114.3450 C.3   101  ALA101      0.1728
    153  C         59.4490   32.5620  112.9830 C.2   101  ALA101      0.2616
    154  O         60.4540   31.8850  112.7730 O.2   101  ALA101     -0.2715
    155  CB        57.5700   31.5940  114.3140 C.3   101  ALA101      0.0334
    156  N         58.9140   33.3350  112.0530 N.am  102  THR102     -0.1951
    157  CA        59.5100   33.4050  110.7350 C.3   102  THR102      0.1897
    158  C         60.9130   33.9970  110.8070 C.2   102  THR102      0.2313
    159  O         61.8610   33.4380  110.2580 O.2   102  THR102     -0.2863
    160  CB        58.6470   34.2620  109.8010 C.3   102  THR102      0.1794
    161  OG1       57.2900   33.8000  109.8590 O.3   102  THR102     -0.2208
    162  CG2       59.1560   34.1690  108.3740 C.3   102  THR102      0.0378
    163  N         62.9830   20.4320  108.1880 N.3   123  ALA123     -0.1231
    164  CA        61.9110   20.7140  109.1320 C.3   123  ALA123      0.1694
    165  C         60.7390   19.7850  108.8410 C.2   123  ALA123      0.2592
    166  O         60.1330   19.8320  107.7660 O.2   123  ALA123     -0.2718
    167  CB        61.4750   22.1720  109.0190 C.3   123  ALA123      0.0304
    168  N         60.4320   18.9290  109.8030 N.am  124  TRP124     -0.1962
    169  CA        59.3450   17.9860  109.6540 C.3   124  TRP124      0.1771
    170  C         58.0870   18.5880  110.2320 C.2   124  TRP124      0.2619
    171  O         57.9430   18.6980  111.4420 O.2   124  TRP124     -0.2715
    172  CB        59.6790   16.6880  110.3840 C.3   124  TRP124      0.0590
    173  CG        60.8550   15.9660  109.8030 C.ar  124  TRP124      0.0006
    174  CD1       61.7620   16.4540  108.8970 C.ar  124  TRP124      0.0946
    175  CD2       61.2570   14.6240  110.0900 C.ar  124  TRP124      0.0152
    176  NE1       62.6990   15.4950  108.6070 N.ar  124  TRP124     -0.2442
    177  CE2       62.4140   14.3610  109.3240 C.ar  124  TRP124      0.0810
    178  CE3       60.7510   13.6130  110.9210 C.ar  124  TRP124      0.0012
    179  CZ2       63.0750   13.1270  109.3650 C.ar  124  TRP124      0.0191
    180  CZ3       61.4120   12.3860  110.9620 C.ar  124  TRP124      0.0001
    181  CH2       62.5610   12.1560  110.1870 C.ar  124  TRP124      0.0015
    182  N         57.1680   18.9820  109.3690 N.am  125  ILE125     -0.1977
    183  CA        55.9400   19.5640  109.8500 C.3   125  ILE125      0.1596
    184  C         54.7510   18.7330  109.3910 C.2   125  ILE125      0.2287
    185  O         54.6610   18.3460  108.2330 O.2   125  ILE125     -0.2864
    186  CB        55.8000   21.0330  109.3640 C.3   125  ILE125      0.0276
    187  CG1       56.9950   21.8580  109.8450 C.3   125  ILE125      0.0022
    188  CG2       54.5520   21.6600  109.9430 C.3   125  ILE125      0.0022
    189  CD1       57.3540   23.0170  108.9480 C.3   125  ILE125      0.0001
    190  N         49.5140   21.2250  110.2440 N.3   129  ASN129     -0.1225
    191  CA        50.1450   22.4310  110.7840 C.3   129  ASN129      0.1785
    192  C         50.3600   23.5200  109.7410 C.2   129  ASN129      0.2597
    193  O         51.5020   23.8410  109.4030 O.2   129  ASN129     -0.2718
    194  CB        51.4900   22.0720  111.4010 C.3   129  ASN129      0.1169
    195  CG        51.7820   22.8600  112.6490 C.2   129  ASN129      0.2627
    196  OD1       51.2610   23.9610  112.8500 O.2   129  ASN129     -0.2716
    197  ND2       52.6240   22.2990  113.5030 N.am  129  ASN129     -0.0877
    198  N         49.2600   24.0920  109.2570 N.am  130  ARG130     -0.1966
    199  CA        49.3040   25.1320  108.2390 C.3   130  ARG130      0.1729
    200  C         50.1060   26.3420  108.6840 C.2   130  ARG130      0.2616
    201  O         50.8620   26.9160  107.8930 O.2   130  ARG130     -0.2715
    202  CB        47.8840   25.5740  107.8800 C.3   130  ARG130      0.0348
    203  CG        47.8320   26.7850  106.9520 C.3   130  ARG130      0.0492
    204  CD        46.5150   27.5480  107.0960 C.3   130  ARG130      0.2205
    205  NE        46.6790   28.8040  107.8310 N.pl3 130  ARG130     -0.0865
    206  CZ        46.1840   29.0410  109.0470 C.cat 130  ARG130      0.5346
    207  NH1       45.4820   28.1090  109.6880 N.pl3 130  ARG130      0.1354
    208  NH2       46.3930   30.2160  109.6310 N.pl3 130  ARG130      0.1354
    209  N         49.9410   26.7160  109.9520 N.am  131  ARG131     -0.1963
    210  CA        50.6320   27.8790  110.5180 C.3   131  ARG131      0.1729
    211  C         52.1490   27.7230  110.5590 C.2   131  ARG131      0.2616
    212  O         52.8760   28.7060  110.4480 O.2   131  ARG131     -0.2715
    213  CB        50.1020   28.1880  111.9270 C.3   131  ARG131      0.0348
    214  CG        49.3110   27.0490  112.5710 C.3   131  ARG131      0.0492
    215  CD        47.8330   27.0920  112.1910 C.3   131  ARG131      0.2205
    216  NE        47.1770   25.8040  112.3980 N.pl3 131  ARG131     -0.0865
    217  CZ        46.9520   25.2630  113.5920 C.cat 131  ARG131      0.5346
    218  NH1       47.3310   25.8990  114.6940 N.pl3 131  ARG131      0.1354
    219  NH2       46.3520   24.0830  113.6870 N.pl3 131  ARG131      0.1354
    220  N         52.6230   26.4910  110.7240 N.am  132  SER132     -0.1950
    221  CA        54.0540   26.2330  110.7490 C.3   132  SER132      0.1924
    222  C         54.5280   26.0300  109.3270 C.2   132  SER132      0.2314
    223  O         55.5940   26.4950  108.9490 O.2   132  SER132     -0.2863
    224  CB        54.3730   24.9900  111.5680 C.3   132  SER132      0.2116
    225  OG        55.7770   24.8380  111.6800 O.3   132  SER132     -0.2180
    226  N         53.5310   27.4590  107.0270 N.3   134  ALA134     -0.1231
    227  CA        53.6070   28.8360  106.5250 C.3   134  ALA134      0.1694
    228  C         54.9750   29.4630  106.8370 C.2   134  ALA134      0.2591
    229  O         55.6250   30.0390  105.9560 O.2   134  ALA134     -0.2718
    230  CB        52.4920   29.6780  107.1380 C.3   134  ALA134      0.0304
    231  N         55.4010   29.3470  108.0930 N.am  135  VAL135     -0.1980
    232  CA        56.6910   29.8710  108.5220 C.3   135  VAL135      0.1595
    233  C         57.7930   29.2190  107.6830 C.2   135  VAL135      0.2287
    234  O         58.6680   29.8920  107.1290 O.2   135  VAL135     -0.2864
    235  CB        56.9510   29.5430  110.0140 C.3   135  VAL135      0.0276
    236  CG1       58.3780   29.9430  110.4130 C.3   135  VAL135      0.0022
    237  CG2       55.9240   30.2420  110.8830 C.3   135  VAL135      0.0022
    238  N         58.0980   30.5170  104.3310 N.3   138  ARG138     -0.1245
    239  CA        58.6510   31.8580  104.3800 C.3   138  ARG138      0.1563
    240  C         60.1640   31.8410  104.5550 C.2   138  ARG138      0.2260
    241  O         60.8750   32.6480  103.9480 O.2   138  ARG138     -0.2867
    242  CB        57.9860   32.6600  105.5110 C.3   138  ARG138      0.0307
    243  CG        56.5780   33.1860  105.1650 C.3   138  ARG138      0.0489
    244  CD        55.8870   33.8410  106.3650 C.3   138  ARG138      0.2205
    245  NE        54.6540   33.1450  106.7410 N.pl3 138  ARG138     -0.0865
    246  CZ        54.1440   33.1320  107.9710 C.cat 138  ARG138      0.5346
    247  NH1       54.7610   33.7810  108.9480 N.pl3 138  ARG138      0.1354
    248  NH2       53.0200   32.4660  108.2280 N.pl3 138  ARG138      0.1354
@<TRIPOS>BOND
     1   241   240    2
     2   238   239    1
     3   239   240    1
     4   239   242    1
     5   243   242    1
     6   243   244    1
     7   229   228    2
     8   244   245    1
     9   227   228    1
    10   227   226    1
    11   227   230    1
    12   245   246    2
    13   228   231   am
    14   203   204    1
    15   203   202    1
    16   204   205    1
    17   234   233    2
    18   233   232    1
    19   166   165    2
    20   205   206    2
    21   202   199    1
    22   201   200    2
    23   246   248    1
    24   246   247    1
    25   231   232    1
    26   163   164    1
    27   185   184    2
    28   199   200    1
    29   199   198    1
    30   162   160    1
    31   232   235    1
    32   176   174   ar
    33   176   177   ar
    34   200   209   am
    35   165   164    1
    36   165   168   am
    37   174   173   ar
    38   189   187    1
    39   223   222    2
    40   167   164    1
    41   206   208    1
    42   206   207    1
    43   198   192   am
    44   177   179   ar
    45   177   175   ar
    46   222   221    1
    47   186   187    1
    48   186   183    1
    49   186   188    1
    50   179   181   ar
    51   182   183    1
    52   182   170   am
    53   184   183    1
    54   193   192    2
    55   169   168    1
    56   169   170    1
    57   169   172    1
    58   192   191    1
    59   160   161    1
    60   160   157    1
    61   173   175   ar
    62   173   172    1
    63   209   210    1
    64   235   236    1
    65   235   237    1
    66   175   178   ar
    67   181   180   ar
    68   170   171    2
    69   190   191    1
    70   159   158    2
    71   212   211    2
    72    84    82   ar
    73    84    83   ar
    74   210   211    1
    75   210   213    1
    76   211   220   am
    77   220   221    1
    78   157   158    1
    79   157   156    1
    80   221   224    1
    81   191   194    1
    82    62    61    1
    83   178   180   ar
    84    61    60    1
    85    61    63    1
    86    82    80   ar
    87    83    81   ar
    88   194   195    1
    89   224   225    1
    90    60    57    1
    91   213   214    1
    92   156   153   am
    93   215   216    1
    94   215   214    1
    95   136   137    1
    96   136   135    1
    97    80    79   ar
    98    80    78   ar
    99   216   217    2
   100    56    57    1
   101   138   137    2
   102    81    78   ar
   103   195   196    2
   104   195   197   am
   105   154   153    2
   106    10     9    1
   107    57    58    1
   108    41    40   ar
   109    41    39   ar
   110   153   152    1
   111   137   139   am
   112    79    77   ar
   113   135   127   am
   114    78    76   ar
   115    40    38   ar
   116    39    37   ar
   117   217   219    1
   118   217   218    1
   119    59    58    2
   120   128   127    2
   121    58    64   am
   122   127   126    1
   123     9    11    1
   124     9     8    2
   125    38    35   ar
   126    37    35   ar
   127    37    36   ar
   128     7     8    1
   129     7     6    1
   130   124   123    2
   131   155   152    1
   132   139   140    1
   133   152   151    1
   134    77    76   ar
   135    76    75    1
   136    35    33   ar
   137   123   122    1
   138   123   125   am
   139   122   121    1
   140   142   141    2
   141   151   141   am
   142   126   125    1
   143   126   129    1
   144    36    34   ar
   145   141   140    1
   146    64    65    1
   147     1     2    1
   148   140   143    1
   149    33    34   ar
   150    33    32    1
   151   121   109   am
   152     6     5    1
   153     5     2    1
   154    75    72    1
   155    65    66    1
   156    65    68    1
   157    67    66    2
   158    32    29    1
   159     2     3    1
   160    66    71   am
   161   129   130    1
   162    71    72    1
   163   143   144    1
   164    31    30    2
   165   109   110    2
   166   109   108    1
   167   145   144   ar
   168   145   147   ar
   169    72    73    1
   170    74    73    2
   171    29    30    1
   172    29    28    1
   173   130   132   ar
   174   130   131   ar
   175   117   119   ar
   176   117   114   ar
   177    68    69    1
   178    68    70    1
   179   119   120   ar
   180     3     4    2
   181   144   146   ar
   182   111   108    1
   183   111   112    1
   184    73    85   am
   185   147   149   ar
   186    30    42   am
   187   108   107    1
   188    99    98    1
   189   132   134   ar
   190   131   133   ar
   191   114   112   ar
   192   114   116   ar
   193   120   118   ar
   194   112   113   ar
   195    85    86    1
   196   116   118   ar
   197   116   115   ar
   198   146   148   ar
   199    98   100    1
   200    98    97    1
   201   104   103    2
   202   149   148   ar
   203   149   150    1
   204   113   115   ar
   205   133   134   ar
   206    42    43    1
   207    86    87    1
   208    86    89    1
   209   107   103   am
   210    54    52   ar
   211    54    55   ar
   212    45    44    2
   213    44    43    1
   214   103   102    1
   215    43    46    1
   216    52    49   ar
   217    97    94    1
   218    55    53   ar
   219    87    93   am
   220    87    88    2
   221    93    94    1
   222    89    90    1
   223    19    18   ar
   224    15    14    2
   225    24    23    2
   226    49    51   ar
   227    49    47   ar
   228    94    95    1
   229    53    51   ar
   230    46    47    1
   231   102   105    1
   232   102   101    1
   233    18    17    1
   234    18    20   ar
   235    17    16    1
   236    51    50   ar
   237    47    48   ar
   238    96    95    2
   239    23    22    1
   240    90    92    1
   241    90    91    1
   242   105   106    1
   243    14    21   am
   244    14    13    1
   245    22    21    1
   246    22    25    1
   247    26    25    1
   248    50    48   ar
   249    13    16    1
   250    13    12    1
   251    25    27    1
