@<TRIPOS>MOLECULE
tmp/2zw7A02.pdb
 111 103 0 0 0
SMALL
GASTEIGER

@<TRIPOS>ATOM
      1  N         -1.7080   54.6980   81.4650 N.3   177  GLU177     -0.1245
      2  CA        -1.5520   54.6900   82.9220 C.3   177  GLU177      0.1567
      3  C         -1.9220   53.3520   83.5670 C.2   177  GLU177      0.2260
      4  O         -2.9000   52.7100   83.1840 O.2   177  GLU177     -0.2867
      5  CB        -2.4060   55.7990   83.5360 C.3   177  GLU177      0.0388
      6  CG        -2.2470   55.9610   85.0420 C.3   177  GLU177      0.1160
      7  CD        -2.9700   57.1920   85.5770 C.2   177  GLU177      0.3649
      8  OE1       -2.4320   58.3130   85.4350 O.co2 177  GLU177     -0.2457
      9  OE2       -4.0770   57.0420   86.1390 O.co2 177  GLU177     -0.2457
     10  N         13.3610   52.3680   83.4750 N.3   197  ARG197     -0.1245
     11  CA        14.0610   53.3570   84.2780 C.3   197  ARG197      0.1563
     12  C         12.9670   54.3340   84.6250 C.2   197  ARG197      0.2260
     13  O         12.0640   54.5650   83.8290 O.2   197  ARG197     -0.2867
     14  CB        15.1700   54.0500   83.4740 C.3   197  ARG197      0.0307
     15  CG        14.6730   54.9530   82.3400 C.3   197  ARG197      0.0489
     16  CD        15.7790   55.8630   81.8280 C.3   197  ARG197      0.2205
     17  NE        15.4490   57.2620   82.0530 N.pl3 197  ARG197     -0.0865
     18  CZ        14.7350   57.9900   81.2090 C.cat 197  ARG197      0.5346
     19  NH1       14.2890   57.4410   80.0880 N.pl3 197  ARG197      0.1354
     20  NH2       14.4500   59.2540   81.4960 N.pl3 197  ARG197      0.1354
     21  N         11.3260   57.8110   85.0460 N.3   199  ALA199     -0.1231
     22  CA        11.4540   59.1530   84.4920 C.3   199  ALA199      0.1694
     23  C         11.1650   60.1810   85.5720 C.2   199  ALA199      0.2592
     24  O         11.8820   61.1660   85.7150 O.2   199  ALA199     -0.2718
     25  CB        10.4860   59.3210   83.3350 C.3   199  ALA199      0.0304
     26  N         10.0970   59.9470   86.3240 N.am  200  PHE200     -0.1976
     27  CA         9.7310   60.8320   87.4140 C.3   200  PHE200      0.1639
     28  C          8.8230   60.1220   88.4060 C.2   200  PHE200      0.2290
     29  O          8.1500   59.1530   88.0660 O.2   200  PHE200     -0.2864
     30  CB         9.0690   62.1160   86.8800 C.3   200  PHE200      0.0560
     31  CG         7.7390   61.9040   86.2180 C.ar  200  PHE200     -0.0200
     32  CD1        6.6270   61.5060   86.9560 C.ar  200  PHE200     -0.0042
     33  CD2        7.5930   62.1280   84.8530 C.ar  200  PHE200     -0.0042
     34  CE1        5.3880   61.3320   86.3460 C.ar  200  PHE200     -0.0003
     35  CE2        6.3570   61.9590   84.2270 C.ar  200  PHE200     -0.0003
     36  CZ         5.2500   61.5590   84.9750 C.ar  200  PHE200     -0.0000
     37  N          6.1960   61.3720   91.5060 N.3   202  ILE202     -0.1245
     38  CA         5.5630   62.4130   92.2950 C.3   202  ILE202      0.1561
     39  C          5.1780   61.9200   93.6960 C.2   202  ILE202      0.2260
     40  O          4.3350   61.0290   93.8560 O.2   202  ILE202     -0.2867
     41  CB         4.3120   62.9600   91.5470 C.3   202  ILE202      0.0252
     42  CG1        4.7360   64.1020   90.6270 C.3   202  ILE202      0.0019
     43  CG2        3.2420   63.4350   92.5310 C.3   202  ILE202      0.0019
     44  CD1        5.6050   63.6560   89.4890 C.3   202  ILE202      0.0001
     45  N          3.4430   58.5350   94.5250 N.3   207  GLU207     -0.1231
     46  CA         2.0190   58.3050   94.3580 C.3   207  GLU207      0.1699
     47  C          1.6830   58.2760   92.8720 C.2   207  GLU207      0.2592
     48  O          0.6290   57.7740   92.4530 O.2   207  GLU207     -0.2718
     49  CB         1.2390   59.4290   95.0260 C.3   207  GLU207      0.0402
     50  CG         0.0470   58.9550   95.8080 C.3   207  GLU207      0.1161
     51  CD         0.2450   59.1350   97.2870 C.2   207  GLU207      0.3649
     52  OE1        1.3720   58.8790   97.7660 O.co2 207  GLU207     -0.2457
     53  OE2       -0.7240   59.5340   97.9650 O.co2 207  GLU207     -0.2457
     54  N          2.5940   58.8340   92.0830 N.am  208  PHE208     -0.1976
     55  CA         2.4260   58.9100   90.6440 C.3   208  PHE208      0.1639
     56  C          3.7980   58.9410   90.0110 C.2   208  PHE208      0.2290
     57  O          4.6520   59.7170   90.4200 O.2   208  PHE208     -0.2864
     58  CB         1.6610   60.1800   90.2770 C.3   208  PHE208      0.0560
     59  CG         1.5510   60.4190   88.8020 C.ar  208  PHE208     -0.0200
     60  CD1        0.8340   59.5450   87.9950 C.ar  208  PHE208     -0.0042
     61  CD2        2.1650   61.5190   88.2160 C.ar  208  PHE208     -0.0042
     62  CE1        0.7300   59.7650   86.6180 C.ar  208  PHE208     -0.0003
     63  CE2        2.0670   61.7490   86.8420 C.ar  208  PHE208     -0.0003
     64  CZ         1.3470   60.8700   86.0410 C.ar  208  PHE208     -0.0000
     65  N          6.3470   57.7800   86.1800 N.3   210  GLU210     -0.1245
     66  CA         6.4750   57.3910   84.7890 C.3   210  GLU210      0.1567
     67  C          7.6780   56.4660   84.6460 C.2   210  GLU210      0.2260
     68  O          8.7640   56.7440   85.1710 O.2   210  GLU210     -0.2867
     69  CB         6.6720   58.6210   83.8920 C.3   210  GLU210      0.0388
     70  CG         6.5480   58.3280   82.3840 C.3   210  GLU210      0.1160
     71  CD         7.1920   59.3980   81.5180 C.2   210  GLU210      0.3649
     72  OE1        8.4270   59.3660   81.3620 O.co2 210  GLU210     -0.2457
     73  OE2        6.4740   60.2720   80.9900 O.co2 210  GLU210     -0.2457
     74  N         14.9860   60.5750   76.3290 N.3   217  SER217     -0.1217
     75  CA        13.9780   61.5670   76.6770 C.3   217  SER217      0.1889
     76  C         12.5540   61.2300   76.2450 C.2   217  SER217      0.2288
     77  O         11.6080   61.3850   77.0210 O.2   217  SER217     -0.2866
     78  CB        14.3820   62.9260   76.1040 C.3   217  SER217      0.2089
     79  OG        15.3210   63.5700   76.9430 O.3   217  SER217     -0.2183
     80  N          6.9280   54.2000   77.0470 N.3   221  ARG221     -0.1245
     81  CA         6.8420   54.3620   78.4870 C.3   221  ARG221      0.1563
     82  C          5.3950   54.3790   78.9580 C.2   221  ARG221      0.2260
     83  O          4.4640   54.5470   78.1660 O.2   221  ARG221     -0.2867
     84  CB         7.5270   55.6610   78.9080 C.3   221  ARG221      0.0307
     85  CG         6.7720   56.8980   78.5000 C.3   221  ARG221      0.0489
     86  CD         7.7120   58.0520   78.2320 C.3   221  ARG221      0.2205
     87  NE         6.9900   59.1880   77.6690 N.pl3 221  ARG221     -0.0865
     88  CZ         7.4880   60.0230   76.7620 C.cat 221  ARG221      0.5346
     89  NH1        8.7240   59.8570   76.3050 N.pl3 221  ARG221      0.1354
     90  NH2        6.7420   61.0220   76.3040 N.pl3 221  ARG221      0.1354
     91  N          2.8820   55.3320   82.7450 N.3   223  ARG223     -0.1245
     92  CA         2.8300   55.9250   84.0710 C.3   223  ARG223      0.1563
     93  C          2.1230   55.0080   85.0520 C.2   223  ARG223      0.2260
     94  O          1.2790   54.1890   84.6640 O.2   223  ARG223     -0.2867
     95  CB         2.1070   57.2730   84.0330 C.3   223  ARG223      0.0307
     96  CG         2.2410   58.0120   82.7320 C.3   223  ARG223      0.0489
     97  CD         3.2090   59.1570   82.8670 C.3   223  ARG223      0.2205
     98  NE         2.7050   60.3480   82.1910 N.pl3 223  ARG223     -0.0865
     99  CZ         3.2350   60.8580   81.0880 C.cat 223  ARG223      0.5346
    100  NH1        4.2850   60.2820   80.5370 N.pl3 223  ARG223      0.1354
    101  NH2        2.7170   61.9410   80.5400 N.pl3 223  ARG223      0.1354
    102  N         -0.0430   54.8890   88.7470 N.3   225  ALA225     -0.1231
    103  CA        -0.8260   55.6660   89.7010 C.3   225  ALA225      0.1694
    104  C         -1.1690   54.7820   90.8870 C.2   225  ALA225      0.2591
    105  O         -1.6100   53.6420   90.7150 O.2   225  ALA225     -0.2718
    106  CB        -2.0960   56.1870   89.0410 C.3   225  ALA225      0.0304
    107  N         -0.9560   55.3040   92.0890 N.am  226  ALA226     -0.1980
    108  CA        -1.2380   54.5480   93.2990 C.3   226  ALA226      0.1597
    109  C         -2.7360   54.4910   93.5910 C.2   226  ALA226      0.2287
    110  O         -3.4210   55.5090   93.5540 O.2   226  ALA226     -0.2864
    111  CB        -0.4970   55.1660   94.4760 C.3   226  ALA226      0.0319
@<TRIPOS>BOND
     1    78    75    1
     2    78    79    1
     3    76    75    1
     4    76    77    2
     5    90    88    1
     6    89    88    1
     7    74    75    1
     8    88    87    2
     9    80    81    1
    10    87    86    1
    11    83    82    2
    12    86    85    1
    13    81    84    1
    14    81    82    1
    15    85    84    1
    16    19    18    1
    17   100    99    1
    18   101    99    1
    19    73    71   ar
    20    99    98    2
    21    18    20    1
    22    18    17    2
    23    72    71   ar
    24     1     2    1
    25    71    70    1
    26    16    17    1
    27    16    15    1
    28    98    97    1
    29    15    14    1
    30    70    69    1
    31    96    97    1
    32    96    95    1
    33    91    92    1
    34     2     5    1
    35     2     3    1
    36     4     3    2
    37    25    22    1
    38    14    11    1
    39    10    11    1
    40     5     6    1
    41    13    12    2
    42    69    66    1
    43    95    92    1
    44    92    93    1
    45    35    33   ar
    46    35    36   ar
    47    11    12    1
    48    22    21    1
    49    22    23    1
    50    67    66    1
    51    67    68    2
    52    94    93    2
    53    66    65    1
    54    33    31   ar
    55    36    34   ar
    56     6     7    1
    57     8     7   ar
    58    23    24    2
    59    23    26   am
    60     7     9   ar
    61    64    62   ar
    62    64    63   ar
    63    31    30    1
    64    31    32   ar
    65    26    27    1
    66    34    32   ar
    67    62    60   ar
    68    63    61   ar
    69    30    27    1
    70    27    28    1
    71    60    59   ar
    72    29    28    2
    73    61    59   ar
    74   102   103    1
    75    59    58    1
    76   106   103    1
    77    44    42    1
    78   103   104    1
    79    56    57    2
    80    56    55    1
    81    58    55    1
    82    42    41    1
    83    55    54    1
    84   105   104    2
    85   104   107   am
    86    37    38    1
    87    41    38    1
    88    41    43    1
    89    54    47   am
    90   107   108    1
    91    38    39    1
    92    48    47    2
    93    47    46    1
    94   108   109    1
    95   108   111    1
    96   110   109    2
    97    39    40    2
    98    46    45    1
    99    46    49    1
   100    49    50    1
   101    50    51    1
   102    51    52   ar
   103    51    53   ar
