@<TRIPOS>MOLECULE
tmp/2zwaB00.pdb
 182 175 0 0 0
SMALL
GASTEIGER

@<TRIPOS>ATOM
      1  N        -25.2630  -29.4810   21.7380 N.3    30  SER30      -0.1202
      2  CA       -25.7370  -28.4260   20.8600 C.3    30  SER30       0.2020
      3  C        -26.2370  -27.2410   21.6660 C.2    30  SER30       0.2619
      4  O        -26.2340  -27.2570   22.9020 O.2    30  SER30      -0.2717
      5  CB       -26.8490  -28.9420   19.9370 C.3    30  SER30       0.2103
      6  OG       -28.0830  -29.0750   20.6370 O.3    30  SER30      -0.2182
      7  N        -26.6640  -26.2130   20.9460 N.am   31  SER31      -0.1937
      8  CA       -27.2710  -25.0410   21.5390 C.3    31  SER31       0.2055
      9  C        -28.5520  -25.3960   22.2820 C.2    31  SER31       0.2642
     10  O        -28.8710  -24.7780   23.2890 O.2    31  SER31      -0.2714
     11  CB       -27.5660  -24.0040   20.4600 C.3    31  SER31       0.2130
     12  OG       -28.3740  -24.5820   19.4510 O.3    31  SER31      -0.2179
     13  N        -29.2860  -26.3950   21.7970 N.am   32  ILE32      -0.1977
     14  CA       -30.5360  -26.7630   22.4570 C.3    32  ILE32       0.1596
     15  C        -30.2740  -27.3730   23.8240 C.2    32  ILE32       0.2287
     16  O        -30.9870  -27.0830   24.8010 O.2    32  ILE32      -0.2864
     17  CB       -31.3690  -27.7410   21.6230 C.3    32  ILE32       0.0276
     18  CG1      -31.7310  -27.1040   20.2830 C.3    32  ILE32       0.0022
     19  CG2      -32.6430  -28.0990   22.3760 C.3    32  ILE32       0.0022
     20  CD1      -32.3720  -25.7480   20.4330 C.3    32  ILE32       0.0001
     21  N        -29.3170  -24.5150   26.0950 N.3    35  LYS35      -0.1245
     22  CA       -30.4930  -23.7830   26.5320 C.3    35  LYS35       0.1561
     23  C        -31.2500  -24.5840   27.6020 C.2    35  LYS35       0.2260
     24  O        -31.7780  -24.0100   28.5530 O.2    35  LYS35      -0.2867
     25  CB       -31.4020  -23.4290   25.3370 C.3    35  LYS35       0.0271
     26  CG       -30.7860  -22.3610   24.4020 C.3    35  LYS35       0.0035
     27  CD       -31.5730  -22.2520   23.0710 C.3    35  LYS35       0.0206
     28  CE       -30.9830  -21.1590   22.1610 C.3    35  LYS35       0.1093
     29  NZ       -31.7590  -21.0160   20.8750 N.3    35  LYS35      -0.1314
     30  N        -28.1420  -15.2820   25.3730 N.3    85  ARG85      -0.1245
     31  CA       -28.6000  -15.6320   24.0290 C.3    85  ARG85       0.1563
     32  C        -30.1300  -15.6750   23.9900 C.2    85  ARG85       0.2260
     33  O        -30.7610  -15.1730   23.0410 O.2    85  ARG85      -0.2867
     34  CB       -27.9690  -16.9570   23.5960 C.3    85  ARG85       0.0307
     35  CG       -28.4430  -17.5220   22.2860 C.3    85  ARG85       0.0489
     36  CD       -27.3480  -18.3830   21.6780 C.3    85  ARG85       0.2205
     37  NE       -27.8370  -19.2370   20.5990 N.pl3  85  ARG85      -0.0865
     38  CZ       -27.0720  -20.1280   19.9790 C.cat  85  ARG85       0.5346
     39  NH1      -27.5650  -20.8830   19.0050 N.pl3  85  ARG85       0.1354
     40  NH2      -25.8060  -20.2630   20.3470 N.pl3  85  ARG85       0.1354
     41  N        -38.1500  -18.5620   11.5500 N.3   110  ASN110     -0.1240
     42  CA       -36.8990  -18.9930   12.1500 C.3   110  ASN110      0.1653
     43  C        -36.0930  -19.7700   11.1140 C.2   110  ASN110      0.2266
     44  O        -36.4650  -20.8720   10.7270 O.2   110  ASN110     -0.2867
     45  CB       -37.1820  -19.8460   13.3950 C.3   110  ASN110      0.1155
     46  CG       -35.9660  -19.9850   14.2820 C.2   110  ASN110      0.2627
     47  OD1      -34.8750  -19.5540   13.9160 O.2   110  ASN110     -0.2716
     48  ND2      -36.1400  -20.6060   15.4430 N.am  110  ASN110     -0.0877
     49  N        -33.2710  -21.9700    9.8190 N.3   112  GLY112     -0.1210
     50  CA       -32.4070  -22.9810   10.3940 C.3   112  GLY112      0.1956
     51  C        -32.7780  -23.1220   11.8520 C.2   112  GLY112      0.2612
     52  O        -31.9450  -22.9540   12.7550 O.2   112  GLY112     -0.2717
     53  N        -34.0480  -23.4440   12.0750 N.am  113  CYS113     -0.1956
     54  CA       -34.6220  -23.4530   13.4180 C.3   113  CYS113      0.1843
     55  C        -34.0790  -24.5840   14.2980 C.2   113  CYS113      0.2626
     56  O        -34.0900  -24.4730   15.5310 O.2   113  CYS113     -0.2714
     57  CB       -36.1450  -23.5760   13.3120 C.3   113  CYS113      0.0997
     58  SG       -36.6570  -25.0860   12.4500 S.3   113  CYS113     -0.0797
     59  N        -33.6160  -25.6660   13.6710 N.am  114  GLY114     -0.1940
     60  CA       -33.2160  -26.8570   14.4050 C.3   114  GLY114      0.2014
     61  C        -34.3490  -27.2880   15.3230 C.2   114  GLY114      0.2639
     62  O        -35.5250  -27.1440   14.9740 O.2   114  GLY114     -0.2714
     63  N        -34.0170  -27.7800   16.5100 N.am  115  TYR115     -0.1959
     64  CA       -35.0680  -28.2220   17.4280 C.3   115  TYR115      0.1771
     65  C        -35.4950  -27.1530   18.4280 C.2   115  TYR115      0.2619
     66  O        -35.9350  -27.4630   19.5310 O.2   115  TYR115     -0.2715
     67  CB       -34.6260  -29.5000   18.1510 C.3   115  TYR115      0.0574
     68  CG       -34.3790  -30.6290   17.1900 C.ar  115  TYR115     -0.0198
     69  CD1      -33.0980  -30.9570   16.7910 C.ar  115  TYR115     -0.0009
     70  CD2      -35.4450  -31.3480   16.6520 C.ar  115  TYR115     -0.0009
     71  CE1      -32.8690  -31.9810   15.9000 C.ar  115  TYR115      0.0417
     72  CE2      -35.2290  -32.3650   15.7570 C.ar  115  TYR115      0.0417
     73  CZ       -33.9430  -32.6820   15.3860 C.ar  115  TYR115      0.1957
     74  OH       -33.7260  -33.7030   14.4980 O.3   115  TYR115     -0.2866
     75  N        -35.3660  -25.8910   18.0420 N.am  116  ASP116     -0.1971
     76  CA       -35.7040  -24.7780   18.9170 C.3   116  ASP116      0.1709
     77  C        -37.2080  -24.7470   19.1720 C.2   116  ASP116      0.2293
     78  O        -38.0000  -24.6890   18.2370 O.2   116  ASP116     -0.2864
     79  CB       -35.2400  -23.4760   18.2440 C.3   116  ASP116      0.1436
     80  CG       -35.4030  -22.2440   19.1320 C.2   116  ASP116      0.3671
     81  OD1      -36.0240  -22.3380   20.2060 O.co2 116  ASP116     -0.2456
     82  OD2      -34.9040  -21.1660   18.7410 O.co2 116  ASP116     -0.2456
     83  N        -35.9790  -25.4780    8.0380 N.3   143  ASP143     -0.1225
     84  CA       -34.7360  -26.2180    8.1720 C.3   143  ASP143      0.1805
     85  C        -34.7140  -27.2970    7.0850 C.2   143  ASP143      0.2597
     86  O        -35.6140  -27.3500    6.2540 O.2   143  ASP143     -0.2718
     87  CB       -34.6210  -26.8320    9.5800 C.3   143  ASP143      0.1424
     88  CG       -33.1630  -27.0040   10.0420 C.2   143  ASP143      0.3668
     89  OD1      -32.3880  -27.7130    9.3660 O.co2 143  ASP143     -0.2456
     90  OD2      -32.8030  -26.4640   11.1170 O.co2 143  ASP143     -0.2456
     91  N        -33.6820  -28.1320    7.0810 N.am  144  TYR144     -0.1976
     92  CA       -33.6060  -29.2310    6.1230 C.3   144  TYR144      0.1639
     93  C        -34.7550  -30.2150    6.3060 C.2   144  TYR144      0.2290
     94  O        -35.2200  -30.4490    7.4240 O.2   144  TYR144     -0.2864
     95  CB       -32.2970  -29.9990    6.2740 C.3   144  TYR144      0.0560
     96  CG       -31.0660  -29.2450    5.8590 C.ar  144  TYR144     -0.0198
     97  CD1      -30.1410  -28.8210    6.8070 C.ar  144  TYR144     -0.0009
     98  CD2      -30.8180  -28.9640    4.5220 C.ar  144  TYR144     -0.0009
     99  CE1      -28.9980  -28.1320    6.4340 C.ar  144  TYR144      0.0417
    100  CE2      -29.6690  -28.2740    4.1370 C.ar  144  TYR144      0.0417
    101  CZ       -28.7670  -27.8630    5.1020 C.ar  144  TYR144      0.1957
    102  OH       -27.6270  -27.1800    4.7370 O.3   144  TYR144     -0.2866
    103  N        -34.3430  -32.9590    9.0540 N.3   147  LEU147     -0.1245
    104  CA       -34.4790  -32.4760   10.4250 C.3   147  LEU147      0.1561
    105  C        -35.9340  -32.2140   10.7590 C.2   147  LEU147      0.2260
    106  O        -36.4090  -32.5890   11.8250 O.2   147  LEU147     -0.2867
    107  CB       -33.6510  -31.2090   10.6690 C.3   147  LEU147      0.0270
    108  CG       -33.6430  -30.8200   12.1550 C.3   147  LEU147      0.0019
    109  CD1      -32.2370  -30.4100   12.5950 C.3   147  LEU147      0.0001
    110  CD2      -34.6730  -29.7380   12.4640 C.3   147  LEU147      0.0001
    111  N        -36.5910  -26.2220    3.6260 N.3   189  CYS189     -0.1221
    112  CA       -35.8820  -25.4520    2.6040 C.3   189  CYS189      0.1808
    113  C        -34.3810  -25.5370    2.8160 C.2   189  CYS189      0.2601
    114  O        -33.9050  -25.4160    3.9370 O.2   189  CYS189     -0.2717
    115  CB       -36.3260  -23.9890    2.6150 C.3   189  CYS189      0.0970
    116  SG       -35.7190  -23.0100    1.1610 S.3   189  CYS189     -0.0800
    117  N        -33.6380  -25.7630    1.7370 N.am  190  ASP190     -0.1959
    118  CA       -32.1960  -25.5910    1.7760 C.3   190  ASP190      0.1840
    119  C        -31.9190  -24.1190    1.5330 C.2   190  ASP190      0.2622
    120  O        -32.1370  -23.6230    0.4270 O.2   190  ASP190     -0.2715
    121  CB       -31.5280  -26.4330    0.6980 C.3   190  ASP190      0.1450
    122  CG       -30.0140  -26.3930    0.7850 C.2   190  ASP190      0.3671
    123  OD1      -29.4560  -25.3630    1.2400 O.co2 190  ASP190     -0.2456
    124  OD2      -29.3860  -27.4000    0.3980 O.co2 190  ASP190     -0.2456
    125  N        -31.4290  -23.4220    2.5560 N.am  191  LEU191     -0.1963
    126  CA       -31.3180  -21.9650    2.4980 C.3   191  LEU191      0.1728
    127  C        -30.2560  -21.5240    1.5010 C.2   191  LEU191      0.2616
    128  O        -30.1690  -20.3550    1.1370 O.2   191  LEU191     -0.2715
    129  CB       -31.0360  -21.3960    3.8880 C.3   191  LEU191      0.0311
    130  CG       -32.2560  -21.5670    4.8000 C.3   191  LEU191      0.0022
    131  CD1      -31.8830  -21.2970    6.2690 C.3   191  LEU191      0.0001
    132  CD2      -33.3940  -20.6720    4.3440 C.3   191  LEU191      0.0001
    133  N        -29.4650  -22.4850    1.0610 N.am  192  ASN192     -0.1972
    134  CA       -28.5040  -22.2520   -0.0120 C.3   192  ASN192      0.1688
    135  C        -29.1700  -21.9450   -1.3550 C.2   192  ASN192      0.2292
    136  O        -28.5320  -21.4520   -2.2850 O.2   192  ASN192     -0.2864
    137  CB       -27.5440  -23.4350   -0.1090 C.3   192  ASN192      0.1181
    138  CG       -26.4690  -23.3770    0.9610 C.2   192  ASN192      0.2629
    139  OD1      -25.9560  -22.2990    1.2630 O.2   192  ASN192     -0.2716
    140  ND2      -26.1350  -24.5190    1.5480 N.am  192  ASN192     -0.0877
    141  N        -30.3300  -17.6340   14.0460 N.3   218  GLU218     -0.1231
    142  CA       -29.5480  -17.7820   15.2770 C.3   218  GLU218      0.1699
    143  C        -28.5460  -18.9010   15.0730 C.2   218  GLU218      0.2592
    144  O        -28.9040  -20.0810   15.0920 O.2   218  GLU218     -0.2718
    145  CB       -30.4980  -18.0990   16.4290 C.3   218  GLU218      0.0402
    146  CG       -29.8140  -18.1830   17.7530 C.3   218  GLU218      0.1161
    147  CD       -30.7990  -18.4790   18.8810 C.2   218  GLU218      0.3649
    148  OE1      -32.0200  -18.5620   18.6220 O.co2 218  GLU218     -0.2457
    149  OE2      -30.3410  -18.6270   20.0230 O.co2 218  GLU218     -0.2457
    150  N        -27.2840  -18.5200   14.8520 N.am  219  VAL219     -0.1966
    151  CA       -26.2210  -19.4580   14.4910 C.3   219  VAL219      0.1727
    152  C        -26.6790  -20.5360   13.5070 C.2   219  VAL219      0.2616
    153  O        -26.6580  -21.7330   13.8040 O.2   219  VAL219     -0.2715
    154  CB       -25.5610  -20.1180   15.7160 C.3   219  VAL219      0.0290
    155  CG1      -24.2630  -20.7870   15.2890 C.3   219  VAL219      0.0023
    156  CG2      -25.2970  -19.0750   16.7940 C.3   219  VAL219      0.0023
    157  N        -27.0830  -20.0980   12.3240 N.am  220  SER220     -0.1950
    158  CA       -27.5520  -21.0150   11.2920 C.3   220  SER220      0.1924
    159  C        -26.9420  -20.5850    9.9700 C.2   220  SER220      0.2314
    160  O        -26.2260  -21.3440    9.3410 O.2   220  SER220     -0.2863
    161  CB       -29.0720  -20.9830   11.1880 C.3   220  SER220      0.2116
    162  OG       -29.5640  -19.6550   11.0600 O.3   220  SER220     -0.2180
    163  N        -23.0610  -21.0010    9.3050 N.3   223  TYR223     -0.1227
    164  CA       -22.4330  -22.1690    8.7020 C.3   223  TYR223      0.1736
    165  C        -22.4200  -22.1110    7.1650 C.2   223  TYR223      0.2595
    166  O        -21.7710  -22.9300    6.5300 O.2   223  TYR223     -0.2718
    167  CB       -23.1750  -23.4350    9.1350 C.3   223  TYR223      0.0548
    168  CG       -23.1590  -23.6670   10.6110 C.ar  223  TYR223     -0.0200
    169  CD1      -24.3440  -23.6760   11.3440 C.ar  223  TYR223     -0.0009
    170  CD2      -21.9610  -23.8680   11.2830 C.ar  223  TYR223     -0.0009
    171  CE1      -24.3310  -23.8970   12.7150 C.ar  223  TYR223      0.0417
    172  CE2      -21.9400  -24.0830   12.6470 C.ar  223  TYR223      0.0417
    173  CZ       -23.1270  -24.0870   13.3540 C.ar  223  TYR223      0.1957
    174  OH       -23.1100  -24.3030   14.7110 O.3   223  TYR223     -0.2866
    175  N        -23.1570  -21.1690    6.5920 N.am  224  MET224     -0.1979
    176  CA       -23.2620  -21.0520    5.1350 C.3   224  MET224      0.1605
    177  C        -22.1830  -20.1130    4.5760 C.2   224  MET224      0.2287
    178  O        -21.7080  -19.1970    5.2560 O.2   224  MET224     -0.2864
    179  CB       -24.6430  -20.5280    4.7540 C.3   224  MET224      0.0413
    180  CG       -25.8040  -21.4230    5.1840 C.3   224  MET224      0.0598
    181  SD       -27.3590  -20.5330    5.0890 S.3   224  MET224     -0.1393
    182  CE       -27.5220  -20.2070    3.3240 C.3   224  MET224      0.0692
@<TRIPOS>BOND
     1   136   135    2
     2   135   134    1
     3   137   134    1
     4   137   138    1
     5   134   133    1
     6   124   122   ar
     7   120   119    2
     8   121   122    1
     9   121   118    1
    10   122   123   ar
    11   138   139    2
    12   138   140   am
    13   133   127   am
    14   128   127    2
    15   116   115    1
    16   127   126    1
    17   119   118    1
    18   119   125   am
    19   117   118    1
    20   117   113   am
    21   126   125    1
    22   126   129    1
    23   112   115    1
    24   112   113    1
    25   112   111    1
    26   113   114    2
    27   182   181    1
    28   129   130    1
    29   100    98   ar
    30   100   101   ar
    31   132   130    1
    32    98    96   ar
    33   177   176    1
    34   177   178    2
    35   102   101    1
    36   179   176    1
    37   179   180    1
    38   130   131    1
    39   181   180    1
    40   101    99   ar
    41   176   175    1
    42    96    95    1
    43    96    97   ar
    44    92    95    1
    45    92    93    1
    46    92    91    1
    47    86    85    2
    48    93    94    2
    49    99    97   ar
    50   166   165    2
    51   175   165   am
    52    91    85   am
    53    85    84    1
    54   165   164    1
    55    83    84    1
    56    84    87    1
    57   164   167    1
    58   164   163    1
    59   103   104    1
    60   167   168    1
    61   160   159    2
    62    89    88   ar
    63    87    88    1
    64    49    50    1
    65   159   158    1
    66    88    90   ar
    67    50    51    1
    68   104   107    1
    69   104   105    1
    70   168   170   ar
    71   168   169   ar
    72   107   108    1
    73    44    43    2
    74   105   106    2
    75   162   161    1
    76    43    42    1
    77   161   158    1
    78   170   172   ar
    79   158   157    1
    80   169   171   ar
    81    41    42    1
    82    51    53   am
    83    51    52    2
    84    53    54    1
    85    42    45    1
    86   108   110    1
    87   108   109    1
    88   157   152   am
    89    58    57    1
    90   172   173   ar
    91   171   173   ar
    92    57    54    1
    93   173   174    1
    94    45    46    1
    95    54    55    1
    96   152   153    2
    97   152   151    1
    98    59    55   am
    99    59    60    1
   100    47    46    2
   101   141   142    1
   102    46    48   am
   103    55    56    2
   104    60    61    1
   105   151   150    1
   106   151   154    1
   107    74    73    1
   108   150   143   am
   109    62    61    2
   110   143   144    2
   111   143   142    1
   112   142   145    1
   113   155   154    1
   114    61    63   am
   115    73    72   ar
   116    73    71   ar
   117   154   156    1
   118    72    70   ar
   119    71    69   ar
   120   145   146    1
   121    63    64    1
   122    70    68   ar
   123    69    68   ar
   124    68    67    1
   125    64    67    1
   126    64    65    1
   127   146   147    1
   128    75    65   am
   129    75    76    1
   130    78    77    2
   131    79    76    1
   132    79    80    1
   133    65    66    2
   134   148   147   ar
   135    82    80   ar
   136   147   149   ar
   137    76    77    1
   138    39    38    1
   139    80    81   ar
   140    12    11    1
   141     5     6    1
   142     5     2    1
   143    38    40    1
   144    38    37    2
   145    18    20    1
   146    18    17    1
   147    11     8    1
   148    37    36    1
   149     2     3    1
   150     2     1    1
   151    29    28    1
   152     7     8    1
   153     7     3   am
   154     8     9    1
   155    17    19    1
   156    17    14    1
   157     3     4    2
   158    36    35    1
   159    13     9   am
   160    13    14    1
   161    28    27    1
   162     9    10    2
   163    35    34    1
   164    14    15    1
   165    33    32    2
   166    27    26    1
   167    34    31    1
   168    15    16    2
   169    32    31    1
   170    31    30    1
   171    26    25    1
   172    25    22    1
   173    21    22    1
   174    22    23    1
   175    23    24    2
