@<TRIPOS>MOLECULE
tmp/2zwiB00.pdb
 147 143 0 0 0
SMALL
GASTEIGER

@<TRIPOS>ATOM
      1  N        -16.7380   34.5780  -23.4540 N.3    13  THR13      -0.1203
      2  CA       -15.7300   33.8060  -24.1930 C.3    13  THR13       0.1994
      3  C        -15.4670   34.3030  -25.6090 C.2    13  THR13       0.2617
      4  O        -14.3280   34.2710  -26.0670 O.2    13  THR13      -0.2717
      5  CB       -16.0670   32.3060  -24.2590 C.3    13  THR13       0.1784
      6  OG1      -17.4070   32.1430  -24.7090 O.3    13  THR13      -0.2211
      7  CG2      -15.9280   31.6720  -22.8960 C.3    13  THR13       0.0376
      8  N        -16.5090   34.7450  -26.3090 N.am   14  LEU14      -0.1979
      9  CA       -16.3340   35.1500  -27.7070 C.3    14  LEU14       0.1596
     10  C        -15.2940   36.2750  -27.9010 C.2    14  LEU14       0.2287
     11  O        -14.3610   36.1000  -28.6790 O.2    14  LEU14      -0.2864
     12  CB       -17.6770   35.4700  -28.3770 C.3    14  LEU14       0.0297
     13  CG       -17.6460   36.1580  -29.7490 C.3    14  LEU14       0.0022
     14  CD1      -17.0300   35.2830  -30.8350 C.3    14  LEU14       0.0001
     15  CD2      -19.0550   36.5680  -30.1430 C.3    14  LEU14       0.0001
     16  N        -12.9640   34.1890  -18.0700 N.3    38  ARG38      -0.1245
     17  CA       -13.0990   32.7590  -18.3600 C.3    38  ARG38       0.1563
     18  C        -11.7920   32.0940  -18.7990 C.2    38  ARG38       0.2260
     19  O        -11.7400   30.8740  -18.9530 O.2    38  ARG38      -0.2867
     20  CB       -14.1940   32.5180  -19.4120 C.3    38  ARG38       0.0307
     21  CG       -15.5990   32.8830  -18.9430 C.3    38  ARG38       0.0489
     22  CD       -16.6530   32.0530  -19.6500 C.3    38  ARG38       0.2205
     23  NE       -16.8230   30.7320  -19.0390 N.pl3  38  ARG38      -0.0865
     24  CZ       -17.3890   29.6800  -19.6320 C.cat  38  ARG38       0.5346
     25  NH1      -17.8430   29.7590  -20.8810 N.pl3  38  ARG38       0.1354
     26  NH2      -17.4900   28.5270  -18.9740 N.pl3  38  ARG38       0.1354
     27  N        -20.4660   40.2560  -27.6180 N.3   112  ASP112     -0.1239
     28  CA       -20.5810   39.2030  -26.5910 C.3   112  ASP112      0.1674
     29  C        -21.1690   37.9160  -27.1830 C.2   112  ASP112      0.2266
     30  O        -20.6730   36.8140  -26.9330 O.2   112  ASP112     -0.2867
     31  CB       -21.4820   39.7370  -25.4620 C.3   112  ASP112      0.1410
     32  CG       -21.6230   38.7850  -24.2920 C.2   112  ASP112      0.3668
     33  OD1      -22.5050   37.9060  -24.3360 O.co2 112  ASP112     -0.2456
     34  OD2      -20.8790   38.9500  -23.2990 O.co2 112  ASP112     -0.2456
     35  N        -25.3570   36.5930  -28.6970 N.3   114  SER114     -0.1217
     36  CA       -26.7190   36.8760  -29.1590 C.3   114  SER114      0.1889
     37  C        -27.3300   38.1500  -28.5550 C.2   114  SER114      0.2288
     38  O        -28.1880   38.7720  -29.1820 O.2   114  SER114     -0.2866
     39  CB       -27.6410   35.6730  -28.8990 C.3   114  SER114      0.2089
     40  OG       -27.9940   35.5710  -27.5250 O.3   114  SER114     -0.2183
     41  N        -26.4360   21.1840  -30.5480 N.3   240  ILE240     -0.1231
     42  CA       -26.0090   22.2940  -29.7280 C.3   240  ILE240      0.1692
     43  C        -26.9040   22.3100  -28.4970 C.2   240  ILE240      0.2593
     44  O        -28.0750   22.6490  -28.5860 O.2   240  ILE240     -0.2718
     45  CB       -26.1060   23.6230  -30.5230 C.3   240  ILE240      0.0266
     46  CG1      -25.1980   23.5840  -31.7680 C.3   240  ILE240      0.0019
     47  CG2      -25.8190   24.8270  -29.6250 C.3   240  ILE240      0.0020
     48  CD1      -23.7370   23.2710  -31.5040 C.3   240  ILE240      0.0001
     49  N        -26.3520   21.9060  -27.3560 N.am  241  GLY241     -0.1942
     50  CA       -27.1370   21.8070  -26.1360 C.3   241  GLY241      0.2014
     51  C        -27.3030   23.1560  -25.4610 C.2   241  GLY241      0.2639
     52  O        -26.6060   24.1130  -25.7830 O.2   241  GLY241     -0.2714
     53  N        -28.2510   23.2310  -24.5290 N.am  242  THR242     -0.1950
     54  CA       -28.4400   24.4340  -23.7350 C.3   242  THR242      0.1897
     55  C        -28.3690   24.0740  -22.2470 C.2   242  THR242      0.2313
     56  O        -27.9650   22.9590  -21.8900 O.2   242  THR242     -0.2863
     57  CB       -29.7600   25.1900  -24.0940 C.3   242  THR242      0.1794
     58  OG1      -29.7410   26.4970  -23.5080 O.3   242  THR242     -0.2208
     59  CG2      -31.0100   24.4400  -23.6010 C.3   242  THR242      0.0378
     60  N        -22.6570   18.7100  -28.2800 N.3   279  LYS279     -0.1231
     61  CA       -21.8880   19.7950  -27.7050 C.3   279  LYS279      0.1693
     62  C        -22.7170   20.5090  -26.6480 C.2   279  LYS279      0.2593
     63  O        -23.5520   21.3690  -26.9670 O.2   279  LYS279     -0.2718
     64  CB       -21.3740   20.7620  -28.7760 C.3   279  LYS279      0.0285
     65  CG       -20.5660   21.9630  -28.2280 C.3   279  LYS279      0.0035
     66  CD       -19.5480   21.5040  -27.2050 C.3   279  LYS279      0.0206
     67  CE       -18.7010   22.6380  -26.6460 C.3   279  LYS279      0.1093
     68  NZ       -19.3810   23.5840  -25.7390 N.3   279  LYS279     -0.1314
     69  N        -22.4770   20.1390  -25.3940 N.am  280  GLY280     -0.1942
     70  CA       -23.1780   20.7190  -24.2570 C.3   280  GLY280      0.2014
     71  C        -22.7960   22.1720  -24.0020 C.2   280  GLY280      0.2639
     72  O        -21.6800   22.5990  -24.3330 O.2   280  GLY280     -0.2714
     73  N        -23.7370   22.9230  -23.4290 N.am  281  HIS281     -0.1959
     74  CA       -23.5060   24.2820  -22.9650 C.3   281  HIS281      0.1772
     75  C        -22.4480   24.2370  -21.8630 C.2   281  HIS281      0.2462
     76  O        -22.5120   23.3670  -21.0270 O.2   281  HIS281     -0.2730
     77  CB       -24.8130   24.8670  -22.4100 C.3   281  HIS281      0.0785
     78  CG       -24.8060   26.3570  -22.2930 C.ar  281  HIS281      0.0821
     79  ND1      -24.0940   27.0240  -21.3190 N.ar  281  HIS281     -0.2267
     80  CD2      -25.4080   27.3120  -23.0410 C.ar  281  HIS281      0.1154
     81  CE1      -24.2530   28.3240  -21.4750 C.ar  281  HIS281      0.1986
     82  NE2      -25.0490   28.5260  -22.5100 N.ar  281  HIS281     -0.2212
     83  N        -21.4630   25.1650  -21.8720 N.am  282  PRO282     -0.2727
     84  CA       -20.4100   25.2250  -20.8460 C.3   282  PRO282      0.1402
     85  C        -20.9200   25.2830  -19.3900 C.2   282  PRO282      0.2269
     86  O        -20.2340   24.8320  -18.4660 O.2   282  PRO282     -0.2865
     87  CB       -19.6750   26.5230  -21.1920 C.3   282  PRO282      0.0296
     88  CG       -19.8190   26.6250  -22.6660 C.3   282  PRO282      0.0237
     89  CD       -21.2630   26.2150  -22.8890 C.3   282  PRO282      0.0939
     90  N        -15.5570   23.4850  -23.7220 N.3   303  ILE303     -0.1231
     91  CA       -14.9270   24.0460  -24.9240 C.3   303  ILE303      0.1678
     92  C        -15.8730   25.0340  -25.6290 C.2   303  ILE303      0.2434
     93  O        -16.9460   24.6450  -26.1000 O.2   303  ILE303     -0.2733
     94  CB       -14.4940   22.9480  -25.9220 C.3   303  ILE303      0.0265
     95  CG1      -13.4920   21.9840  -25.2750 C.3   303  ILE303      0.0019
     96  CG2      -13.9170   23.5890  -27.2150 C.3   303  ILE303      0.0020
     97  CD1      -13.3570   20.6300  -25.9880 C.3   303  ILE303      0.0001
     98  N        -15.4910   26.3220  -25.6920 N.am  304  PRO304     -0.2718
     99  CA       -16.3120   27.2620  -26.4440 C.3   304  PRO304      0.1535
    100  C        -16.3890   26.7930  -27.8890 C.2   304  PRO304      0.2599
    101  O        -15.3660   26.4470  -28.4850 O.2   304  PRO304     -0.2715
    102  CB       -15.5240   28.5750  -26.3480 C.3   304  PRO304      0.0310
    103  CG       -14.7330   28.4330  -25.1070 C.3   304  PRO304      0.0237
    104  CD       -14.3200   26.9870  -25.0950 C.3   304  PRO304      0.0939
    105  N        -17.5930   26.7540  -28.4410 N.am  305  PHE305     -0.1960
    106  CA       -17.7520   26.3450  -29.8360 C.3   305  PHE305      0.1771
    107  C        -16.9130   27.1800  -30.8230 C.2   305  PHE305      0.2619
    108  O        -16.5490   26.6870  -31.8890 O.2   305  PHE305     -0.2715
    109  CB       -19.2250   26.3870  -30.2390 C.3   305  PHE305      0.0574
    110  CG       -19.5430   25.5330  -31.4210 C.ar  305  PHE305     -0.0200
    111  CD1      -19.9660   24.2170  -31.2480 C.ar  305  PHE305     -0.0042
    112  CD2      -19.4160   26.0330  -32.7120 C.ar  305  PHE305     -0.0042
    113  CE1      -20.2680   23.4150  -32.3570 C.ar  305  PHE305     -0.0003
    114  CE2      -19.7140   25.2380  -33.8260 C.ar  305  PHE305     -0.0003
    115  CZ       -20.1400   23.9320  -33.6430 C.ar  305  PHE305     -0.0000
    116  N        -16.6300   28.4360  -30.4670 N.am  306  GLU306     -0.1977
    117  CA       -15.8050   29.3570  -31.2760 C.3   306  GLU306      0.1602
    118  C        -14.3830   28.8430  -31.5000 C.2   306  GLU306      0.2287
    119  O        -13.7690   29.1530  -32.5160 O.2   306  GLU306     -0.2864
    120  CB       -15.7330   30.7420  -30.6280 C.3   306  GLU306      0.0415
    121  CG       -17.0450   31.5180  -30.6260 C.3   306  GLU306      0.1163
    122  CD       -17.9920   31.1180  -29.5050 C.2   306  GLU306      0.3649
    123  OE1      -17.5120   30.5860  -28.4800 O.co2 306  GLU306     -0.2457
    124  OE2      -19.2220   31.3390  -29.6580 O.co2 306  GLU306     -0.2457
    125  N        -31.6930   27.3040  -29.2300 N.3   322  GLY322     -0.1210
    126  CA       -31.3100   28.6860  -29.5340 C.3   322  GLY322      0.1956
    127  C        -30.0980   29.0910  -28.7090 C.2   322  GLY322      0.2613
    128  O        -30.0900   28.8940  -27.4920 O.2   322  GLY322     -0.2717
    129  N        -29.0750   29.6410  -29.3730 N.am  323  SER323     -0.1938
    130  CA       -27.7630   29.8640  -28.7490 C.3   323  SER323      0.2055
    131  C        -26.9460   30.8460  -29.5570 C.2   323  SER323      0.2644
    132  O        -27.1170   30.9390  -30.7760 O.2   323  SER323     -0.2714
    133  CB       -26.9840   28.5430  -28.6540 C.3   323  SER323      0.2130
    134  OG       -25.6670   28.7300  -28.1440 O.3   323  SER323     -0.2179
    135  N        -26.0500   31.5610  -28.8690 N.am  324  SER324     -0.1935
    136  CA       -25.0580   32.4260  -29.5000 C.3   324  SER324      0.2055
    137  C        -24.1420   31.6850  -30.4770 C.2   324  SER324      0.2642
    138  O        -23.5420   32.3250  -31.3330 O.2   324  SER324     -0.2714
    139  CB       -24.1890   33.1250  -28.4430 C.3   324  SER324      0.2130
    140  OG       -24.9730   33.9370  -27.5980 O.3   324  SER324     -0.2179
    141  N        -24.0180   30.3620  -30.3160 N.am  325  VAL325     -0.1977
    142  CA       -23.1550   29.5550  -31.1920 C.3   325  VAL325      0.1596
    143  C        -23.5340   29.6910  -32.6710 C.2   325  VAL325      0.2287
    144  O        -22.6560   29.7850  -33.5250 O.2   325  VAL325     -0.2864
    145  CB       -23.1110   28.0460  -30.8120 C.3   325  VAL325      0.0276
    146  CG1      -22.5380   27.8350  -29.4130 C.3   325  VAL325      0.0022
    147  CG2      -24.4750   27.4110  -30.9340 C.3   325  VAL325      0.0022
@<TRIPOS>BOND
     1   114   115   ar
     2   114   112   ar
     3   115   113   ar
     4   144   143    2
     5   112   110   ar
     6   143   142    1
     7   119   118    2
     8   113   111   ar
     9   108   107    2
    10    46    48    1
    11    46    45    1
    12   118   117    1
    13   110   111   ar
    14   110   109    1
    15   138   137    2
    16   117   120    1
    17   117   116    1
    18   142   145    1
    19   142   141    1
    20   147   145    1
    21    14    13    1
    22   107   116   am
    23   107   106    1
    24   145   146    1
    25   132   131    2
    26   120   121    1
    27   121   122    1
    28    41    42    1
    29    45    42    1
    30    45    47    1
    31   137   141   am
    32   137   136    1
    33   109   106    1
    34    15    13    1
    35   106   105    1
    36    13    12    1
    37    42    43    1
    38   124   122   ar
    39   131   135   am
    40   131   130    1
    41   126   125    1
    42   126   127    1
    43   122   123   ar
    44   136   135    1
    45   136   139    1
    46   129   130    1
    47   129   127   am
    48    38    37    2
    49    36    39    1
    50    36    35    1
    51    36    37    1
    52    39    40    1
    53    64    65    1
    54    64    61    1
    55   130   133    1
    56   127   128    2
    57    11    10    2
    58   133   134    1
    59    44    43    2
    60    43    49   am
    61   101   100    2
    62   139   140    1
    63   105   100   am
    64    12     9    1
    65    60    61    1
    66    65    66    1
    67    10     9    1
    68   100    99    1
    69     9     8    1
    70    61    62    1
    71    27    28    1
    72    49    50    1
    73    96    94    1
    74    66    67    1
    75    29    30    2
    76    29    28    1
    77    63    62    2
    78    62    69   am
    79    67    68    1
    80    28    31    1
    81    99   102    1
    82    99    98    1
    83   102   103    1
    84     8     3   am
    85    50    51    1
    86    93    92    2
    87     4     3    2
    88    97    95    1
    89    94    95    1
    90    94    91    1
    91    52    51    2
    92    98    92   am
    93    98   104    1
    94    92    91    1
    95     3     2    1
    96    31    32    1
    97    51    53   am
    98    69    70    1
    99   103   104    1
   100    91    90    1
   101     6     5    1
   102    53    54    1
   103    33    32   ar
   104    72    71    2
   105    32    34   ar
   106     5     2    1
   107     5     7    1
   108    70    71    1
   109     2     1    1
   110    57    54    1
   111    57    59    1
   112    57    58    1
   113    71    73   am
   114    54    55    1
   115    73    74    1
   116    80    82   ar
   117    80    78   ar
   118    74    77    1
   119    74    75    1
   120    89    88    1
   121    89    83    1
   122    88    87    1
   123    82    81   ar
   124    77    78    1
   125    78    79   ar
   126    55    56    2
   127    83    75   am
   128    83    84    1
   129    75    76    2
   130    81    79   ar
   131    87    84    1
   132    25    24    1
   133    84    85    1
   134    22    23    1
   135    22    21    1
   136    24    23    2
   137    24    26    1
   138    20    21    1
   139    20    17    1
   140    85    86    2
   141    19    18    2
   142    18    17    1
   143    17    16    1
