@<TRIPOS>MOLECULE
tmp/2zwlB00.pdb
 216 214 0 0 0
SMALL
GASTEIGER

@<TRIPOS>ATOM
      1  N         31.7200   14.3270    4.2660 N.3    41  HIS41      -0.1241
      2  CA        32.1870   13.0250    3.7910 C.3    41  HIS41       0.1621
      3  C         31.1360   12.2030    3.0390 C.2    41  HIS41       0.2264
      4  O         31.4700   11.2520    2.3320 O.2    41  HIS41      -0.2867
      5  CB        32.7980   12.2000    4.9370 C.3    41  HIS41       0.0745
      6  CG        31.8070   11.4250    5.7490 C.ar   41  HIS41       0.0817
      7  ND1       31.3620   11.8490    6.9830 N.ar   41  HIS41      -0.2268
      8  CD2       31.2190   10.2220    5.5300 C.ar   41  HIS41       0.1154
      9  CE1       30.5470   10.9410    7.4910 C.ar   41  HIS41       0.1986
     10  NE2       30.4430    9.9450    6.6300 N.ar   41  HIS41      -0.2212
     11  N         31.9860   12.1950   -0.7270 N.3    44  ASP44      -0.1225
     12  CA        33.3130   11.7610   -1.1790 C.3    44  ASP44       0.1805
     13  C         33.3100   10.9970   -2.5090 C.2    44  ASP44       0.2597
     14  O         34.1720   11.2160   -3.3580 O.2    44  ASP44      -0.2718
     15  CB        33.9790   10.8720   -0.1170 C.3    44  ASP44       0.1424
     16  CG        34.6330   11.6680    0.9980 C.2    44  ASP44       0.3668
     17  OD1       34.5200   12.8970    1.0050 O.co2  44  ASP44      -0.2456
     18  OD2       35.2620   11.0490    1.8550 O.co2  44  ASP44      -0.2456
     19  N         32.3570   10.0890   -2.6870 N.am   45  LYS45      -0.1979
     20  CA        32.3030    9.3060   -3.9180 C.3    45  LYS45       0.1596
     21  C         31.1100    9.5680   -4.8300 C.2    45  LYS45       0.2287
     22  O         30.6750    8.6780   -5.5580 O.2    45  LYS45      -0.2864
     23  CB        32.3720    7.8130   -3.5990 C.3    45  LYS45       0.0298
     24  CG        33.7750    7.3230   -3.2790 C.3    45  LYS45       0.0038
     25  CD        34.0390    7.2760   -1.7940 C.3    45  LYS45       0.0206
     26  CE        33.2310    6.1690   -1.1280 C.3    45  LYS45       0.1093
     27  NZ        33.5650    6.0520    0.3230 N.3    45  LYS45      -0.1314
     28  N         38.0400   21.0330    3.8470 N.3    82  TYR82      -0.1241
     29  CA        37.7240   19.6180    4.0240 C.3    82  TYR82       0.1605
     30  C         38.4820   18.7830    2.9890 C.2    82  TYR82       0.2264
     31  O         38.5580   19.1510    1.8220 O.2    82  TYR82      -0.2867
     32  CB        36.2200   19.3660    3.8620 C.3    82  TYR82       0.0534
     33  CG        35.8740   17.8880    3.7850 C.ar   82  TYR82      -0.0201
     34  CD1       35.8510   17.1010    4.9310 C.ar   82  TYR82      -0.0009
     35  CD2       35.6560   17.2640    2.5520 C.ar   82  TYR82      -0.0009
     36  CE1       35.6290   15.7280    4.8580 C.ar   82  TYR82       0.0417
     37  CE2       35.4330   15.8880    2.4670 C.ar   82  TYR82       0.0417
     38  CZ        35.4240   15.1300    3.6310 C.ar   82  TYR82       0.1957
     39  OH        35.2220   13.7730    3.5740 O.3    82  TYR82      -0.2866
     40  N         38.0380   11.6970    2.3540 N.3    85  GLY85      -0.1210
     41  CA        38.6980   10.5740    2.9860 C.3    85  GLY85       0.1956
     42  C         39.1070   10.8710    4.4180 C.2    85  GLY85       0.2613
     43  O         39.5390    9.9670    5.1310 O.2    85  GLY85      -0.2717
     44  N         38.9720   12.1270    4.8460 N.am   86  THR86      -0.1938
     45  CA        39.3560   12.5090    6.2020 C.3    86  THR86       0.2028
     46  C         38.1730   12.9240    7.0820 C.2    86  THR86       0.2642
     47  O         37.0140   12.7980    6.6790 O.2    86  THR86      -0.2714
     48  CB        40.4170   13.6310    6.1850 C.3    86  THR86       0.1808
     49  OG1       39.8640   14.8130    5.6050 O.3    86  THR86      -0.2208
     50  CG2       41.6310   13.1930    5.3750 C.3    86  THR86       0.0379
     51  N         38.4690   13.4330    8.2750 N.am   87  THR87      -0.1950
     52  CA        37.4290   13.7830    9.2360 C.3    87  THR87       0.1897
     53  C         37.2060   15.2510    9.6330 C.2    87  THR87       0.2313
     54  O         36.1110   15.6050   10.0860 O.2    87  THR87      -0.2863
     55  CB        37.6430   12.9630   10.5320 C.3    87  THR87       0.1794
     56  OG1       38.9730   13.1870   11.0220 O.3    87  THR87      -0.2208
     57  CG2       37.4680   11.4650   10.2650 C.3    87  THR87       0.0378
     58  N         27.1240   -2.6940   14.9340 N.3   137  ASP137     -0.1239
     59  CA        28.4040   -2.4830   14.2660 C.3   137  ASP137      0.1674
     60  C         28.4930   -3.4490   13.0910 C.2   137  ASP137      0.2266
     61  O         28.3800   -4.6610   13.2680 O.2   137  ASP137     -0.2867
     62  CB        29.5620   -2.7500   15.2320 C.3   137  ASP137      0.1410
     63  CG        30.9220   -2.4590   14.6120 C.2   137  ASP137      0.3668
     64  OD1       31.2450   -1.2970   14.4310 O.co2 137  ASP137     -0.2456
     65  OD2       31.6520   -3.4060   14.3100 O.co2 137  ASP137     -0.2456
     66  N         44.8970    4.6470   20.1410 N.3   165  VAL165     -0.1231
     67  CA        45.2290    3.7370   19.0500 C.3   165  VAL165      0.1692
     68  C         46.1740    4.4030   18.0380 C.2   165  VAL165      0.2593
     69  O         46.3070    5.6280   18.0080 O.2   165  VAL165     -0.2718
     70  CB        43.9550    3.2370   18.3170 C.3   165  VAL165      0.0266
     71  CG1       43.0530    2.4780   19.2830 C.3   165  VAL165      0.0020
     72  CG2       43.1950    4.3980   17.7210 C.3   165  VAL165      0.0020
     73  N         46.8280    3.5800   17.2200 N.am  166  GLY166     -0.1942
     74  CA        47.7780    4.0550   16.2270 C.3   166  GLY166      0.2014
     75  C         47.4560    5.2930   15.4090 C.2   166  GLY166      0.2639
     76  O         47.6430    6.4200   15.8690 O.2   166  GLY166     -0.2714
     77  N         46.9880    5.0810   14.1810 N.am  167  ASP167     -0.1957
     78  CA        46.6660    6.1760   13.2620 C.3   167  ASP167      0.1840
     79  C         45.2930    6.8030   13.4840 C.2   167  ASP167      0.2623
     80  O         44.6130    7.1770   12.5270 O.2   167  ASP167     -0.2715
     81  CB        46.7710    5.6840   11.8150 C.3   167  ASP167      0.1450
     82  CG        48.2060    5.5710   11.3410 C.2   167  ASP167      0.3671
     83  OD1       48.9870    4.8620   11.9810 O.co2 167  ASP167     -0.2456
     84  OD2       48.5450    6.1930   10.3250 O.co2 167  ASP167     -0.2456
     85  N         44.8990    6.9330   14.7450 N.am  168  SER168     -0.1936
     86  CA        43.6130    7.5240   15.0840 C.3   168  SER168      0.2040
     87  C         43.5830    9.0030   14.7270 C.2   168  SER168      0.2485
     88  O         44.5010    9.7470   15.0560 O.2   168  SER168     -0.2729
     89  CB        43.3370    7.3640   16.5790 C.3   168  SER168      0.2129
     90  OG        42.1200    7.9870   16.9490 O.3   168  SER168     -0.2179
     91  N         42.5290    9.4420   14.0260 N.am  169  PRO169     -0.2726
     92  CA        42.4330   10.8560   13.6600 C.3   169  PRO169      0.1402
     93  C         42.4050   11.7010   14.9310 C.2   169  PRO169      0.2269
     94  O         41.9640   11.2390   15.9810 O.2   169  PRO169     -0.2865
     95  CB        41.1120   10.9210   12.9000 C.3   169  PRO169      0.0296
     96  CG        41.0320    9.5750   12.2550 C.3   169  PRO169      0.0237
     97  CD        41.4660    8.6580   13.3760 C.3   169  PRO169      0.0939
     98  N         25.4870    4.3810   20.3750 N.3   186  ASP186     -0.1225
     99  CA        26.2540    5.2830   19.5170 C.3   186  ASP186      0.1805
    100  C         25.5160    5.4270   18.1790 C.2   186  ASP186      0.2598
    101  O         24.5570    4.6980   17.9110 O.2   186  ASP186     -0.2718
    102  CB        27.6390    4.6400   19.3050 C.3   186  ASP186      0.1424
    103  CG        28.6500    5.5480   18.6060 C.2   186  ASP186      0.3668
    104  OD1       28.4340    6.7500   18.4650 O.co2 186  ASP186     -0.2456
    105  OD2       29.6850    5.0190   18.2190 O.co2 186  ASP186     -0.2456
    106  N         25.9300    6.3930   17.3630 N.am  187  SER187     -0.1938
    107  CA        25.3580    6.5420   16.0360 C.3   187  SER187      0.2055
    108  C         26.3230    5.7150   15.1760 C.2   187  SER187      0.2643
    109  O         27.3090    5.1840   15.6970 O.2   187  SER187     -0.2714
    110  CB        25.3370    8.0120   15.5950 C.3   187  SER187      0.2130
    111  OG        26.5900    8.6410   15.7750 O.3   187  SER187     -0.2179
    112  N         26.0630    5.5920   13.8790 N.am  188  CYS188     -0.1953
    113  CA        26.9320    4.7860   13.0230 C.3   188  CYS188      0.1843
    114  C         27.0940    5.4240   11.6510 C.2   188  CYS188      0.2625
    115  O         26.5020    6.4690   11.3740 O.2   188  CYS188     -0.2714
    116  CB        26.3360    3.3760   12.8980 C.3   188  CYS188      0.0997
    117  SG        27.4700    2.0460   12.3800 S.3   188  CYS188     -0.0797
    118  N         27.8980    4.7910   10.8000 N.am  189  LYS189     -0.1977
    119  CA        28.1720    5.2710    9.4460 C.3   189  LYS189      0.1596
    120  C         26.9340    5.7170    8.6680 C.2   189  LYS189      0.2287
    121  O         26.9140    6.8030    8.0970 O.2   189  LYS189     -0.2864
    122  CB        28.8980    4.1860    8.6380 C.3   189  LYS189      0.0298
    123  CG        30.1990    3.6980    9.2620 C.3   189  LYS189      0.0038
    124  CD        30.9640    2.7660    8.3300 C.3   189  LYS189      0.0206
    125  CE        30.1990    1.4810    8.0480 C.3   189  LYS189      0.1093
    126  NZ        30.9410    0.5990    7.0930 N.3   189  LYS189     -0.1314
    127  N         25.4920    9.2010    9.3480 N.3   192  SER192     -0.1217
    128  CA        26.2900   10.3590    8.9450 C.3   192  SER192      0.1889
    129  C         25.4540   11.5000    8.3790 C.2   192  SER192      0.2288
    130  O         24.5710   11.2850    7.5450 O.2   192  SER192     -0.2866
    131  CB        27.3160    9.9430    7.8900 C.3   192  SER192      0.2089
    132  OG        28.2600    9.0390    8.4250 O.3   192  SER192     -0.2183
    133  N         26.5030   13.9300   12.8900 N.3   210  VAL210     -0.1231
    134  CA        27.0860   12.5910   12.9690 C.3   210  VAL210      0.1692
    135  C         28.2480   12.6080   11.9760 C.2   210  VAL210      0.2593
    136  O         28.0320   12.7640   10.7730 O.2   210  VAL210     -0.2718
    137  CB        26.0540   11.5120   12.5620 C.3   210  VAL210      0.0266
    138  CG1       26.6860   10.1230   12.6270 C.3   210  VAL210      0.0020
    139  CG2       24.8500   11.5750   13.4860 C.3   210  VAL210      0.0020
    140  N         29.4760   12.4650   12.4730 N.am  211  SER211     -0.1938
    141  CA        30.6540   12.5330   11.6010 C.3   211  SER211      0.2055
    142  C         31.5270   11.2880   11.5100 C.2   211  SER211      0.2643
    143  O         31.6620   10.6940   10.4360 O.2   211  SER211     -0.2714
    144  CB        31.5250   13.7250   12.0150 C.3   211  SER211      0.2130
    145  OG        32.6500   13.8560   11.1660 O.3   211  SER211     -0.2179
    146  N         32.1440   10.8940   12.6160 N.am  212  TRP212     -0.1959
    147  CA        32.9960    9.7150   12.5710 C.3   212  TRP212      0.1771
    148  C         33.1860    9.0440   13.9190 C.2   212  TRP212      0.2620
    149  O         32.5950    9.4400   14.9250 O.2   212  TRP212     -0.2715
    150  CB        34.3720   10.0770   11.9790 C.3   212  TRP212      0.0590
    151  CG        35.1890   11.0450   12.8020 C.ar  212  TRP212      0.0006
    152  CD1       35.0540   12.4050   12.8510 C.ar  212  TRP212      0.0946
    153  CD2       36.2860   10.7200   13.6700 C.ar  212  TRP212      0.0152
    154  NE1       36.0020   12.9490   13.6900 N.ar  212  TRP212     -0.2442
    155  CE2       36.7700   11.9370   14.2060 C.ar  212  TRP212      0.0810
    156  CE3       36.9070    9.5200   14.0440 C.ar  212  TRP212      0.0012
    157  CZ2       37.8520   11.9860   15.1000 C.ar  212  TRP212      0.0191
    158  CZ3       37.9860    9.5690   14.9360 C.ar  212  TRP212      0.0001
    159  CH2       38.4450   10.7960   15.4510 C.ar  212  TRP212      0.0015
    160  N         34.0290    8.0200   13.9280 N.am  213  GLY213     -0.1940
    161  CA        34.3080    7.2980   15.1510 C.3   213  GLY213      0.2014
    162  C         34.9880    6.0020   14.7920 C.2   213  GLY213      0.2639
    163  O         35.1240    5.6840   13.6110 O.2   213  GLY213     -0.2714
    164  N         35.4350    5.2550   15.7920 N.am  214  GLN214     -0.1963
    165  CA        36.0810    3.9820   15.5210 C.3   214  GLN214      0.1733
    166  C         34.9860    2.9370   15.5440 C.2   214  GLN214      0.2617
    167  O         34.4860    2.5790   16.6060 O.2   214  GLN214     -0.2715
    168  CB        37.1360    3.6830   16.5790 C.3   214  GLN214      0.0408
    169  CG        37.8130    2.3420   16.3950 C.3   214  GLN214      0.0908
    170  CD        39.2540    2.3600   16.8450 C.2   214  GLN214      0.2608
    171  OE1       39.6130    3.0630   17.7910 O.2   214  GLN214     -0.2717
    172  NE2       40.0920    1.5760   16.1730 N.am  214  GLN214     -0.0878
    173  N         34.6060    2.4580   14.3640 N.am  215  GLY215     -0.1940
    174  CA        33.5390    1.4820   14.2790 C.3   215  GLY215      0.2014
    175  C         32.2830    2.1250   14.8350 C.2   215  GLY215      0.2639
    176  O         32.1350    3.3470   14.7880 O.2   215  GLY215     -0.2714
    177  N         31.3810    1.3110   15.3720 N.am  216  CYS216     -0.1967
    178  CA        30.1450    1.8240   15.9430 C.3   216  CYS216      0.1712
    179  C         29.8930    1.1930   17.3100 C.2   216  CYS216      0.2296
    180  O         29.7650   -0.0280   17.4320 O.2   216  CYS216     -0.2864
    181  CB        28.9810    1.5490   14.9830 C.3   216  CYS216      0.0983
    182  SG        29.1940    2.4220   13.3980 S.3   216  CYS216     -0.0798
    183  N         34.0590    6.7580   21.7720 N.3   222  PHE222     -0.1227
    184  CA        32.8700    7.5970   21.7090 C.3   222  PHE222      0.1736
    185  C         32.6380    8.0590   20.2700 C.2   222  PHE222      0.2596
    186  O         33.5670    8.1020   19.4590 O.2   222  PHE222     -0.2718
    187  CB        33.0700    8.8570   22.5660 C.3   222  PHE222      0.0547
    188  CG        33.1760    8.5990   24.0410 C.ar  222  PHE222     -0.0202
    189  CD1       32.0340    8.4860   24.8260 C.ar  222  PHE222     -0.0042
    190  CD2       34.4220    8.4960   24.6550 C.ar  222  PHE222     -0.0042
    191  CE1       32.1320    8.2750   26.1970 C.ar  222  PHE222     -0.0003
    192  CE2       34.5280    8.2840   26.0240 C.ar  222  PHE222     -0.0003
    193  CZ        33.3830    8.1730   26.7970 C.ar  222  PHE222     -0.0000
    194  N         31.4010    8.4230   19.9540 N.am  223  GLY223     -0.1942
    195  CA        31.1410    8.9300   18.6220 C.3   223  GLY223      0.2014
    196  C         31.7060   10.3450   18.5640 C.2   223  GLY223      0.2639
    197  O         31.7830   11.0180   19.5930 O.2   223  GLY223     -0.2714
    198  N         32.1240   10.7890   17.3830 N.am  224  VAL224     -0.1963
    199  CA        32.6640   12.1370   17.2170 C.3   224  VAL224      0.1727
    200  C         31.7110   12.8930   16.2790 C.2   224  VAL224      0.2616
    201  O         31.3080   12.3760   15.2360 O.2   224  VAL224     -0.2715
    202  CB        34.0960   12.1190   16.5970 C.3   224  VAL224      0.0290
    203  CG1       34.7250   13.5030   16.7110 C.3   224  VAL224      0.0023
    204  CG2       34.9770   11.0810   17.3040 C.3   224  VAL224      0.0023
    205  N         31.3600   14.1170   16.6510 N.am  225  TYR225     -0.1974
    206  CA        30.4240   14.9130   15.8680 C.3   225  TYR225      0.1639
    207  C         31.0400   16.2510   15.4580 C.2   225  TYR225      0.2290
    208  O         31.8700   16.7980   16.1760 O.2   225  TYR225     -0.2864
    209  CB        29.1470   15.1580   16.6920 C.3   225  TYR225      0.0560
    210  CG        28.4460   13.8830   17.1590 C.ar  225  TYR225     -0.0198
    211  CD1       28.9560   13.1120   18.2110 C.ar  225  TYR225     -0.0009
    212  CD2       27.3020   13.4250   16.5150 C.ar  225  TYR225     -0.0009
    213  CE1       28.3340   11.9080   18.5990 C.ar  225  TYR225      0.0417
    214  CE2       26.6800   12.2350   16.8940 C.ar  225  TYR225      0.0417
    215  CZ        27.1980   11.4840   17.9310 C.ar  225  TYR225      0.1957
    216  OH        26.5700   10.3100   18.2930 O.3   225  TYR225     -0.2866
@<TRIPOS>BOND
     1    22    21    2
     2    21    20    1
     3    20    23    1
     4    20    19    1
     5    23    24    1
     6    14    13    2
     7    24    25    1
     8    19    13   am
     9    13    12    1
    10    25    26    1
    11    12    11    1
    12    12    15    1
    13    26    27    1
    14    15    16    1
    15    16    17   ar
    16    16    18   ar
    17    31    30    2
    18     4     3    2
    19    40    41    1
    20    37    35   ar
    21    37    38   ar
    22    35    33   ar
    23    41    42    1
    24    30    29    1
    25     3     2    1
    26    39    38    1
    27    38    36   ar
    28    33    32    1
    29    33    34   ar
    30     2     1    1
    31     2     5    1
    32    28    29    1
    33    32    29    1
    34    42    44   am
    35    42    43    2
    36    44    45    1
    37    36    34   ar
    38     5     6    1
    39    50    48    1
    40     8     6   ar
    41     8    10   ar
    42    49    48    1
    43     6     7   ar
    44    48    45    1
    45    45    46    1
    46    10     9   ar
    47    47    46    2
    48     7     9   ar
    49    46    51   am
    50   126   125    1
    51   130   129    2
    52   131   132    1
    53   131   128    1
    54   125   124    1
    55   121   120    2
    56    51    52    1
    57   124   123    1
    58   129   128    1
    59   122   123    1
    60   122   119    1
    61   120   119    1
    62   128   127    1
    63    52    53    1
    64    52    55    1
    65   119   118    1
    66    53    54    2
    67    57    55    1
    68    84    82   ar
    69   143   142    2
    70    55    56    1
    71   136   135    2
    72   118   114   am
    73   145   144    1
    74    82    81    1
    75    82    83   ar
    76   115   114    2
    77   142   141    1
    78   142   146   am
    79   141   144    1
    80   141   140    1
    81   114   113    1
    82    81    78    1
    83   135   140   am
    84   135   134    1
    85   150   147    1
    86   150   151    1
    87    96    95    1
    88    96    97    1
    89   117   116    1
    90   117   182    1
    91    80    79    2
    92   137   138    1
    93   137   134    1
    94   137   139    1
    95   147   146    1
    96   147   148    1
    97   151   152   ar
    98   151   153   ar
    99   152   154   ar
   100   133   134    1
   101   116   113    1
   102    95    92    1
   103   113   112    1
   104    60    61    2
   105    60    59    1
   106    78    79    1
   107    78    77    1
   108    97    91    1
   109   182   181    1
   110    79    85   am
   111   163   162    2
   112    92    91    1
   113    92    93    1
   114   153   156   ar
   115   153   155   ar
   116   154   155   ar
   117   112   108   am
   118   148   160   am
   119   148   149    2
   120   160   161    1
   121    91    87   am
   122   156   158   ar
   123    77    75   am
   124   155   157   ar
   125    59    58    1
   126    59    62    1
   127   174   173    1
   128   174   175    1
   129    65    63   ar
   130   173   166   am
   131    64    63   ar
   132    63    62    1
   133    87    88    2
   134    87    86    1
   135    85    86    1
   136   176   175    2
   137   162   161    1
   138   162   164   am
   139   175   177   am
   140    93    94    2
   141   158   159   ar
   142   181   178    1
   143    86    89    1
   144   157   159   ar
   145   108   109    2
   146   108   107    1
   147   201   200    2
   148   177   178    1
   149    75    76    2
   150    75    74    1
   151   207   206    1
   152   207   208    2
   153   165   166    1
   154   165   164    1
   155   165   168    1
   156   166   167    2
   157   110   111    1
   158   110   107    1
   159   206   205    1
   160   206   209    1
   161   178   179    1
   162   107   106    1
   163   172   170   am
   164    74    73    1
   165   200   205   am
   166   200   199    1
   167   169   168    1
   168   169   170    1
   169   212   214   ar
   170   212   210   ar
   171    89    90    1
   172   202   203    1
   173   202   199    1
   174   202   204    1
   175   209   210    1
   176   170   171    2
   177   214   215   ar
   178   210   211   ar
   179   199   198    1
   180    73    68   am
   181   179   180    2
   182   106   100   am
   183   198   196   am
   184    72    70    1
   185   101   100    2
   186   215   216    1
   187   215   213   ar
   188    69    68    2
   189    68    67    1
   190   100    99    1
   191   211   213   ar
   192   105   103   ar
   193    70    67    1
   194    70    71    1
   195   104   103   ar
   196   196   195    1
   197   196   197    2
   198   103   102    1
   199   195   194    1
   200    67    66    1
   201   102    99    1
   202   186   185    2
   203    99    98    1
   204   194   185   am
   205   185   184    1
   206   184   183    1
   207   184   187    1
   208   187   188    1
   209   188   190   ar
   210   188   189   ar
   211   190   192   ar
   212   189   191   ar
   213   192   193   ar
   214   191   193   ar
