@<TRIPOS>MOLECULE
tmp/2zwsA00.pdb
 93 90 0 0 0
SMALL
GASTEIGER

@<TRIPOS>ATOM
      1  N        -24.8170   16.1150   23.9130 N.3    54  ARG54      -0.1245
      2  CA       -25.5090   14.8940   23.5850 C.3    54  ARG54       0.1563
      3  C        -25.8670   14.9510   22.0950 C.2    54  ARG54       0.2260
      4  O        -26.8990   15.4850   21.6440 O.2    54  ARG54      -0.2867
      5  CB       -26.6280   14.4830   24.5210 C.3    54  ARG54       0.0307
      6  CG       -26.0960   13.9820   25.8630 C.3    54  ARG54       0.0489
      7  CD       -26.5790   12.5660   26.1850 C.3    54  ARG54       0.2205
      8  NE       -25.8130   12.0160   27.2970 N.pl3  54  ARG54      -0.0865
      9  CZ       -25.0070   10.9540   27.2340 C.cat  54  ARG54       0.5346
     10  NH1      -24.8610   10.2620   26.1070 N.pl3  54  ARG54       0.1354
     11  NH2      -24.3540   10.5620   28.3240 N.pl3  54  ARG54       0.1354
     12  N        -19.0140    5.4000   20.7370 N.3    89  ASN89      -0.1240
     13  CA       -20.3130    5.4120   21.3930 C.3    89  ASN89       0.1653
     14  C        -21.3950    6.1720   20.6350 C.2    89  ASN89       0.2266
     15  O        -22.5700    5.8960   20.8260 O.2    89  ASN89      -0.2867
     16  CB       -20.2040    5.9770   22.8010 C.3    89  ASN89       0.1155
     17  CG       -19.2640    5.1740   23.6630 C.2    89  ASN89       0.2627
     18  OD1      -19.3920    3.9680   23.7570 O.2    89  ASN89      -0.2716
     19  ND2      -18.3090    5.8460   24.2900 N.am   89  ASN89      -0.0877
     20  N        -29.2350    8.8780   24.0760 N.3   296  ASP296     -0.1225
     21  CA       -28.2610    8.0860   24.8220 C.3   296  ASP296      0.1805
     22  C        -27.7330    7.0280   23.8840 C.2   296  ASP296      0.2598
     23  O        -28.2750    6.8120   22.7720 O.2   296  ASP296     -0.2718
     24  CB       -28.9480    7.4260   26.0340 C.3   296  ASP296      0.1424
     25  CG       -27.9760    7.0020   27.1340 C.2   296  ASP296      0.3668
     26  OD1      -26.7510    7.2230   27.0390 O.co2 296  ASP296     -0.2456
     27  OD2      -28.4860    6.4590   28.1290 O.co2 296  ASP296     -0.2456
     28  N        -26.6720    6.3670   24.3240 N.am  297  SER297     -0.1938
     29  CA       -26.1370    5.2820   23.5110 C.3   297  SER297      0.2055
     30  C        -25.2170    4.3840   24.3140 C.2   297  SER297      0.2642
     31  O        -24.7130    4.7690   25.4000 O.2   297  SER297     -0.2714
     32  CB       -25.3660    5.8620   22.3240 C.3   297  SER297      0.2130
     33  OG       -24.2490    6.5890   22.8170 O.3   297  SER297     -0.2179
     34  N        -24.9900    3.1840   23.7680 N.am  298  ARG298     -0.1977
     35  CA       -23.9530    2.2860   24.3000 C.3   298  ARG298      0.1597
     36  C        -23.2770    1.6020   23.1180 C.2   298  ARG298      0.2287
     37  O        -23.8690    1.4760   22.0380 O.2   298  ARG298     -0.2864
     38  CB       -24.5380    1.2130   25.2330 C.3   298  ARG298      0.0334
     39  CG       -25.0960    1.7320   26.5450 C.3   298  ARG298      0.0492
     40  CD       -24.0280    2.2850   27.5070 C.3   298  ARG298      0.2205
     41  NE       -24.6360    2.5530   28.8070 N.pl3 298  ARG298     -0.0865
     42  CZ       -25.4050    3.6150   29.0680 C.cat 298  ARG298      0.5346
     43  NH1      -25.6540    4.5190   28.1270 N.pl3 298  ARG298      0.1354
     44  NH2      -25.9430    3.7680   30.2680 N.pl3 298  ARG298      0.1354
     45  N        -28.9750    2.8930   33.6190 N.3   474  ARG474     -0.1231
     46  CA       -27.8430    3.7690   33.4050 C.3   474  ARG474      0.1694
     47  C        -26.6950    2.7580   33.5630 C.2   474  ARG474      0.2592
     48  O        -26.9010    1.5770   33.3360 O.2   474  ARG474     -0.2718
     49  CB       -27.8610    4.9610   34.3810 C.3   474  ARG474      0.0321
     50  CG       -29.2420    5.6700   34.5310 C.3   474  ARG474      0.0489
     51  CD       -29.6700    6.5020   33.3040 C.3   474  ARG474      0.2205
     52  NE       -30.9800    7.1760   33.4250 N.pl3 474  ARG474     -0.0865
     53  CZ       -31.4340    8.0910   32.5540 C.cat 474  ARG474      0.5346
     54  NH1      -30.6740    8.4540   31.5220 N.pl3 474  ARG474      0.1354
     55  NH2      -32.6360    8.6380   32.7020 N.pl3 474  ARG474      0.1354
     56  N        -25.4970    3.1210   33.9340 N.am  475  LEU475     -0.1966
     57  CA       -24.5340    2.0220   34.0020 C.3   475  LEU475      0.1713
     58  C        -23.9010    1.6810   32.6600 C.2   475  LEU475      0.2458
     59  O        -24.5790    1.5710   31.6260 O.2   475  LEU475     -0.2730
     60  CB       -25.1810    0.7260   34.5290 C.3   475  LEU475      0.0310
     61  CG       -25.4140    0.5330   36.0290 C.3   475  LEU475      0.0022
     62  CD1      -25.5250   -0.9600   36.3840 C.3   475  LEU475      0.0001
     63  CD2      -24.3000    1.2160   36.8360 C.3   475  LEU475      0.0001
     64  N        -22.5910    1.4540   32.6930 N.am  476  PRO476     -0.2716
     65  CA       -21.7540    1.1490   31.5350 C.3   476  PRO476      0.1536
     66  C        -21.9510   -0.2780   31.0760 C.2   476  PRO476      0.2598
     67  O        -22.4140   -1.1210   31.8460 O.2   476  PRO476     -0.2715
     68  CB       -20.3300    1.3020   32.0660 C.3   476  PRO476      0.0310
     69  CG       -20.4200    1.5840   33.4840 C.3   476  PRO476      0.0237
     70  CD       -21.8050    1.5410   33.9470 C.3   476  PRO476      0.0939
     71  N        -21.6210   -0.5500   29.8160 N.am  477  VAL477     -0.1964
     72  CA       -21.5470   -1.9290   29.3690 C.3   477  VAL477      0.1727
     73  C        -20.1340   -2.4150   29.6940 C.2   477  VAL477      0.2616
     74  O        -19.2900   -1.6180   30.1020 O.2   477  VAL477     -0.2715
     75  CB       -21.8990   -2.0760   27.8670 C.3   477  VAL477      0.0290
     76  CG1      -23.3940   -1.8090   27.6640 C.3   477  VAL477      0.0023
     77  CG2      -21.0650   -1.1290   27.0340 C.3   477  VAL477      0.0023
     78  N        -19.8680   -3.7000   29.5010 N.am  478  GLU478     -0.1963
     79  CA       -18.5300   -4.2160   29.8190 C.3   478  GLU478      0.1733
     80  C        -17.4590   -3.6450   28.8910 C.2   478  GLU478      0.2617
     81  O        -17.7540   -3.2320   27.7640 O.2   478  GLU478     -0.2715
     82  CB       -18.4890   -5.7500   29.9330 C.3   478  GLU478      0.0429
     83  CG       -19.3770   -6.5800   29.0150 C.3   478  GLU478      0.1163
     84  CD       -20.8650   -6.5730   29.3580 C.2   478  GLU478      0.3649
     85  OE1      -21.4000   -7.6520   29.7400 O.co2 478  GLU478     -0.2457
     86  OE2      -21.5180   -5.5100   29.2020 O.co2 478  GLU478     -0.2457
     87  N        -16.2210   -3.5720   29.3830 N.am  479  THR479     -0.1951
     88  CA       -15.1470   -2.9280   28.6250 C.3   479  THR479      0.1897
     89  C        -14.9890   -3.5900   27.2650 C.2   479  THR479      0.2313
     90  O        -15.0950   -4.8040   27.1420 O.2   479  THR479     -0.2863
     91  CB       -13.8000   -2.9790   29.3630 C.3   479  THR479      0.1794
     92  OG1      -13.5320   -4.3310   29.7410 O.3   479  THR479     -0.2208
     93  CG2      -13.8370   -2.1010   30.6110 C.3   479  THR479      0.0378
@<TRIPOS>BOND
     1    14    15    2
     2    14    13    1
     3    12    13    1
     4    13    16    1
     5     4     3    2
     6    37    36    2
     7     3     2    1
     8    32    33    1
     9    32    29    1
    10    23    22    2
    11    16    17    1
    12    36    35    1
    13    29    30    1
    14    29    28    1
    15     2     1    1
    16     2     5    1
    17    17    18    2
    18    17    19   am
    19    34    35    1
    20    34    30   am
    21    22    28   am
    22    22    21    1
    23    20    21    1
    24    35    38    1
    25    30    31    2
    26     5     6    1
    27    21    24    1
    28    38    39    1
    29     6     7    1
    30    24    25    1
    31    10     9    1
    32     7     8    1
    33    39    40    1
    34    77    75    1
    35    26    25   ar
    36    25    27   ar
    37    90    89    2
    38     9     8    2
    39     9    11    1
    40    89    88    1
    41    40    41    1
    42    76    75    1
    43    81    80    2
    44    75    72    1
    45    43    42    1
    46    88    91    1
    47    88    87    1
    48    41    42    2
    49    80    87   am
    50    80    79    1
    51    83    84    1
    52    83    82    1
    53    42    44    1
    54    86    84   ar
    55    84    85   ar
    56    91    92    1
    57    91    93    1
    58    72    73    1
    59    72    71    1
    60    78    73   am
    61    78    79    1
    62    73    74    2
    63    71    66   am
    64    79    82    1
    65    66    65    1
    66    66    67    2
    67    54    53    1
    68    65    68    1
    69    65    64    1
    70    59    58    2
    71    68    69    1
    72    53    55    1
    73    53    52    2
    74    58    64   am
    75    58    57    1
    76    64    70    1
    77    51    52    1
    78    51    50    1
    79    48    47    2
    80    46    47    1
    81    46    45    1
    82    46    49    1
    83    69    70    1
    84    47    56   am
    85    56    57    1
    86    57    60    1
    87    49    50    1
    88    60    61    1
    89    61    62    1
    90    61    63    1
