@<TRIPOS>MOLECULE
tmp/2zwvA00.pdb
 219 210 0 0 0
SMALL
GASTEIGER

@<TRIPOS>ATOM
      1  N         42.2720   23.0130   15.4060 N.3     7  TYR7       -0.1241
      2  CA        41.2440   22.0200   15.1250 C.3     7  TYR7        0.1605
      3  C         40.5150   22.3000   13.8180 C.2     7  TYR7        0.2264
      4  O         40.2400   21.3830   13.0420 O.2     7  TYR7       -0.2867
      5  CB        40.2040   21.9540   16.2430 C.3     7  TYR7        0.0534
      6  CG        39.1080   20.9710   15.9030 C.ar    7  TYR7       -0.0201
      7  CD1       39.3030   19.6020   16.0770 C.ar    7  TYR7       -0.0009
      8  CD2       37.9220   21.3970   15.3000 C.ar    7  TYR7       -0.0009
      9  CE1       38.3540   18.6810   15.6540 C.ar    7  TYR7        0.0417
     10  CE2       36.9640   20.4800   14.8670 C.ar    7  TYR7        0.0417
     11  CZ        37.1890   19.1240   15.0470 C.ar    7  TYR7        0.1957
     12  OH        36.2650   18.2050   14.6090 O.3     7  TYR7       -0.2866
     13  N         39.2510   15.3890   12.9860 N.3    25  GLY25      -0.1225
     14  CA        37.8330   15.0820   12.9130 C.3    25  GLY25       0.1811
     15  C         37.3400   14.5810   11.5670 C.2    25  GLY25       0.2280
     16  O         36.1840   14.1750   11.4460 O.2    25  GLY25      -0.2866
     17  N         33.0120   17.8380    8.6590 N.3    76  ALA76      -0.1245
     18  CA        34.4590   17.9840    8.7360 C.3    76  ALA76       0.1562
     19  C         35.1090   17.5010    7.4380 C.2    76  ALA76       0.2260
     20  O         35.9720   18.1760    6.8710 O.2    76  ALA76      -0.2867
     21  CB        34.9930   17.1920    9.9160 C.3    76  ALA76       0.0290
     22  N         30.1790    2.7960   11.9320 N.3   112  ARG112     -0.1245
     23  CA        28.8210    3.3300   12.0060 C.3   112  ARG112      0.1563
     24  C         27.7810    2.2970   12.4400 C.2   112  ARG112      0.2260
     25  O         26.6370    2.6400   12.7350 O.2   112  ARG112     -0.2867
     26  CB        28.4270    3.9060   10.6450 C.3   112  ARG112      0.0307
     27  CG        29.3060    5.0610   10.2000 C.3   112  ARG112      0.0489
     28  CD        29.0050    6.3050   11.0060 C.3   112  ARG112      0.2205
     29  NE        27.6570    6.7930   10.7360 N.pl3 112  ARG112     -0.0865
     30  CZ        27.0660    7.7810   11.4000 C.cat 112  ARG112      0.5346
     31  NH1       27.7040    8.3980   12.3870 N.pl3 112  ARG112      0.1354
     32  NH2       25.8360    8.1560   11.0700 N.pl3 112  ARG112      0.1354
     33  N         24.2500    7.8890   17.4990 N.3   206  PHE206     -0.1227
     34  CA        24.7390    7.4900   18.8110 C.3   206  PHE206      0.1736
     35  C         23.5510    7.0610   19.6670 C.2   206  PHE206      0.2596
     36  O         22.4790    7.6630   19.5990 O.2   206  PHE206     -0.2718
     37  CB        25.4470    8.6600   19.4950 C.3   206  PHE206      0.0547
     38  CG        25.7630    8.4150   20.9440 C.ar  206  PHE206     -0.0202
     39  CD1       26.8190    7.5870   21.3140 C.ar  206  PHE206     -0.0042
     40  CD2       24.9960    9.0060   21.9430 C.ar  206  PHE206     -0.0042
     41  CE1       27.1070    7.3530   22.6580 C.ar  206  PHE206     -0.0003
     42  CE2       25.2750    8.7800   23.2930 C.ar  206  PHE206     -0.0003
     43  CZ        26.3340    7.9500   23.6500 C.ar  206  PHE206     -0.0000
     44  N         23.7450    6.0120   20.4600 N.am  207  SER207     -0.1952
     45  CA        22.7030    5.5080   21.3530 C.3   207  SER207      0.1924
     46  C         21.3480    5.3110   20.6740 C.2   207  SER207      0.2314
     47  O         20.3360    5.8700   21.1030 O.2   207  SER207     -0.2863
     48  CB        22.5450    6.4540   22.5480 C.3   207  SER207      0.2116
     49  OG        21.6040    5.9490   23.4820 O.3   207  SER207     -0.2180
     50  N         20.5660    7.7180   26.1270 N.3   212  ASP212     -0.1239
     51  CA        21.7880    7.3250   26.8120 C.3   212  ASP212      0.1674
     52  C         21.7410    7.7070   28.2910 C.2   212  ASP212      0.2266
     53  O         21.2930    8.7940   28.6500 O.2   212  ASP212     -0.2867
     54  CB        22.9950    7.9860   26.1500 C.3   212  ASP212      0.1410
     55  CG        24.3100    7.4530   26.6740 C.2   212  ASP212      0.3668
     56  OD1       24.6030    6.2600   26.4430 O.co2 212  ASP212     -0.2456
     57  OD2       25.0450    8.2240   27.3210 O.co2 212  ASP212     -0.2456
     58  N         23.4010   11.0410   29.1650 N.3   215  SER215     -0.1217
     59  CA        22.6320   12.2060   28.7520 C.3   215  SER215      0.1889
     60  C         21.5720   12.5350   29.7900 C.2   215  SER215      0.2288
     61  O         21.3130   13.7000   30.0870 O.2   215  SER215     -0.2866
     62  CB        21.9620   11.9340   27.4040 C.3   215  SER215      0.2089
     63  OG        22.9270   11.6330   26.4130 O.3   215  SER215     -0.2183
     64  N         24.2300   23.0260   22.0970 N.3   238  ASP238     -0.1239
     65  CA        24.3820   21.5980   22.3590 C.3   238  ASP238      0.1674
     66  C         25.4550   21.0660   21.4130 C.2   238  ASP238      0.2266
     67  O         25.2090   20.8990   20.2200 O.2   238  ASP238     -0.2867
     68  CB        23.0510   20.8730   22.1120 C.3   238  ASP238      0.1410
     69  CG        23.1120   19.3950   22.4560 C.2   238  ASP238      0.3668
     70  OD1       24.1880   18.9150   22.8660 O.co2 238  ASP238     -0.2456
     71  OD2       22.0770   18.7120   22.3140 O.co2 238  ASP238     -0.2456
     72  N         27.3870   18.4410   19.6480 N.3   240  GLY240     -0.1210
     73  CA        27.2330   17.0390   19.2980 C.3   240  GLY240      0.1956
     74  C         25.8400   16.6020   19.6960 C.2   240  GLY240      0.2612
     75  O         25.6690   15.6420   20.4470 O.2   240  GLY240     -0.2717
     76  N         24.8480   17.3170   19.1730 N.am  241  ALA241     -0.1965
     77  CA        23.4390   17.0930   19.4780 C.3   241  ALA241      0.1728
     78  C         22.8540   15.7190   19.1860 C.2   241  ALA241      0.2617
     79  O         21.8940   15.3160   19.8390 O.2   241  ALA241     -0.2715
     80  CB        22.5960   18.1640   18.7880 C.3   241  ALA241      0.0334
     81  N         23.4080   15.0000   18.2150 N.am  242  GLY242     -0.1940
     82  CA        22.8690   13.6860   17.8890 C.3   242  GLY242      0.2014
     83  C         21.4180   13.8220   17.4550 C.2   242  GLY242      0.2638
     84  O         21.0690   14.7860   16.7750 O.2   242  GLY242     -0.2714
     85  N         20.5600   12.8810   17.8430 N.am  243  TYR243     -0.1973
     86  CA        19.1550   12.9740   17.4610 C.3   243  TYR243      0.1639
     87  C         18.3300   13.8310   18.4180 C.2   243  TYR243      0.2290
     88  O         17.1060   13.8990   18.2970 O.2   243  TYR243     -0.2864
     89  CB        18.5320   11.5770   17.3110 C.3   243  TYR243      0.0560
     90  CG        18.6170   10.6850   18.5310 C.ar  243  TYR243     -0.0198
     91  CD1       17.8530   10.9450   19.6700 C.ar  243  TYR243     -0.0009
     92  CD2       19.4470    9.5640   18.5360 C.ar  243  TYR243     -0.0009
     93  CE1       17.9130   10.1080   20.7830 C.ar  243  TYR243      0.0417
     94  CE2       19.5150    8.7230   19.6420 C.ar  243  TYR243      0.0417
     95  CZ        18.7450    9.0000   20.7600 C.ar  243  TYR243      0.1957
     96  OH        18.8050    8.1620   21.8480 O.3   243  TYR243     -0.2866
     97  N         18.8040   13.9990   22.2530 N.3   245  ALA245     -0.1231
     98  CA        18.5950   13.5600   23.6320 C.3   245  ALA245      0.1694
     99  C         18.5910   14.7480   24.5930 C.2   245  ALA245      0.2591
    100  O         17.7600   14.8190   25.4970 O.2   245  ALA245     -0.2718
    101  CB        19.6770   12.5590   24.0390 C.3   245  ALA245      0.0304
    102  N         19.5200   15.6810   24.3880 N.am  246  LEU246     -0.1980
    103  CA        19.6180   16.8690   25.2350 C.3   246  LEU246      0.1596
    104  C         18.8590   18.0440   24.6240 C.2   246  LEU246      0.2287
    105  O         18.2340   18.8330   25.3360 O.2   246  LEU246     -0.2864
    106  CB        21.0840   17.2750   25.4180 C.3   246  LEU246      0.0297
    107  CG        22.0710   16.2440   25.9740 C.3   246  LEU246      0.0022
    108  CD1       23.4500   16.8850   26.0680 C.3   246  LEU246      0.0001
    109  CD2       21.6130   15.7560   27.3450 C.3   246  LEU246      0.0001
    110  N         24.6890   21.5930   17.2250 N.3   260  VAL260     -0.1231
    111  CA        25.6880   21.4050   16.1800 C.3   260  VAL260      0.1692
    112  C         26.0050   19.9190   16.1330 C.2   260  VAL260      0.2592
    113  O         26.2730   19.3010   17.1640 O.2   260  VAL260     -0.2718
    114  CB        26.9720   22.2150   16.4610 C.3   260  VAL260      0.0266
    115  CG1       26.6760   23.7020   16.3130 C.3   260  VAL260      0.0020
    116  CG2       27.4990   21.9100   17.8610 C.3   260  VAL260      0.0020
    117  N         25.9450   19.3500   14.9330 N.am  261  GLU261     -0.1966
    118  CA        26.1940   17.9270   14.7340 C.3   261  GLU261      0.1733
    119  C         26.9330   17.7140   13.4130 C.2   261  GLU261      0.2616
    120  O         26.5260   18.2330   12.3730 O.2   261  GLU261     -0.2715
    121  CB        24.8550   17.1790   14.7330 C.3   261  GLU261      0.0429
    122  CG        24.9440   15.7050   14.3820 C.3   261  GLU261      0.1163
    123  CD        25.8720   14.9350   15.3010 C.2   261  GLU261      0.3649
    124  OE1       25.6610   14.9590   16.5340 O.co2 261  GLU261     -0.2457
    125  OE2       26.8120   14.3040   14.7790 O.co2 261  GLU261     -0.2457
    126  N         28.0190   16.9480   13.4590 N.am  262  ASP262     -0.1957
    127  CA        28.8280   16.7000   12.2690 C.3   262  ASP262      0.1840
    128  C         28.2550   15.6430   11.3340 C.2   262  ASP262      0.2622
    129  O         28.5060   15.6750   10.1250 O.2   262  ASP262     -0.2715
    130  CB        30.2460   16.2950   12.6810 C.3   262  ASP262      0.1450
    131  CG        31.2170   16.3010   11.5130 C.2   262  ASP262      0.3671
    132  OD1       31.4270   17.3780   10.9160 O.co2 262  ASP262     -0.2456
    133  OD2       31.7730   15.2270   11.1980 O.co2 262  ASP262     -0.2456
    134  N         27.4870   14.7110   11.8930 N.am  263  ASP263     -0.1971
    135  CA        26.8890   13.6310   11.1120 C.3   263  ASP263      0.1709
    136  C         25.5460   14.0150   10.4960 C.2   263  ASP263      0.2293
    137  O         24.6000   14.3470   11.2050 O.2   263  ASP263     -0.2864
    138  CB        26.7160   12.3880   11.9870 C.3   263  ASP263      0.1436
    139  CG        26.1250   11.2180   11.2250 C.2   263  ASP263      0.3671
    140  OD1       26.7230   10.8110   10.2050 O.co2 263  ASP263     -0.2456
    141  OD2       25.0670   10.7080   11.6460 O.co2 263  ASP263     -0.2456
    142  N         22.4670   12.0900   11.6830 N.3   266  SER266     -0.1217
    143  CA        22.0710   12.5410   13.0090 C.3   266  SER266      0.1889
    144  C         21.3430   13.8780   12.9400 C.2   266  SER266      0.2288
    145  O         20.3980   14.1160   13.6930 O.2   266  SER266     -0.2866
    146  CB        23.2980   12.6610   13.9150 C.3   266  SER266      0.2089
    147  OG        23.8910   11.3910   14.1260 O.3   266  SER266     -0.2183
    148  N         27.1880   20.7770   11.4470 N.3   286  SER286     -0.1202
    149  CA        28.4170   21.5320   11.6350 C.3   286  SER286      0.2020
    150  C         29.5490   20.7730   12.3140 C.2   286  SER286      0.2619
    151  O         29.3210   19.8830   13.1360 O.2   286  SER286     -0.2717
    152  CB        28.1080   22.8040   12.4450 C.3   286  SER286      0.2103
    153  OG        29.2900   23.4610   12.8710 O.3   286  SER286     -0.2182
    154  N         30.7740   21.1350   11.9440 N.am  287  ASP287     -0.1959
    155  CA        31.9740   20.5460   12.5230 C.3   287  ASP287      0.1840
    156  C         32.2480   21.4180   13.7400 C.2   287  ASP287      0.2621
    157  O         32.8920   22.4630   13.6420 O.2   287  ASP287     -0.2715
    158  CB        33.1370   20.6170   11.5240 C.3   287  ASP287      0.1450
    159  CG        34.4360   20.0870   12.0990 C.2   287  ASP287      0.3671
    160  OD1       34.3860   19.3160   13.0810 O.co2 287  ASP287     -0.2456
    161  OD2       35.5070   20.4310   11.5590 O.co2 287  ASP287     -0.2456
    162  N         31.7290   20.9840   14.8820 N.am  288  VAL288     -0.1977
    163  CA        31.8500   21.7320   16.1230 C.3   288  VAL288      0.1596
    164  C         31.1150   23.0580   15.9050 C.2   288  VAL288      0.2287
    165  O         29.9330   23.0550   15.5630 O.2   288  VAL288     -0.2864
    166  CB        33.3220   21.9870   16.5010 C.3   288  VAL288      0.0276
    167  CG1       33.4080   22.5640   17.9070 C.3   288  VAL288      0.0022
    168  CG2       34.1050   20.6860   16.4250 C.3   288  VAL288      0.0022
    169  N         27.7000   15.8330   25.5960 N.3   304  ASN304     -0.1226
    170  CA        28.0130   14.4570   25.9150 C.3   304  ASN304      0.1770
    171  C         28.9500   14.1450   24.7570 C.2   304  ASN304      0.2439
    172  O         28.5540   13.5520   23.7560 O.2   304  ASN304     -0.2733
    173  CB        26.7710   13.5600   25.8430 C.3   304  ASN304      0.1168
    174  CG        27.0820   12.1090   26.1710 C.2   304  ASN304      0.2627
    175  OD1       28.2380   11.7480   26.3800 O.2   304  ASN304     -0.2716
    176  ND2       26.0500   11.2680   26.2160 N.am  304  ASN304     -0.0877
    177  N         30.2110   14.5850   24.8710 N.am  305  PRO305     -0.2718
    178  CA        31.2660   14.4210   23.8740 C.3   305  PRO305      0.1520
    179  C         31.5040   12.9920   23.3910 C.2   305  PRO305      0.2440
    180  O         31.2640   12.0290   24.1180 O.2   305  PRO305     -0.2731
    181  CB        32.5020   14.9820   24.5790 C.3   305  PRO305      0.0310
    182  CG        31.9310   15.9660   25.5450 C.3   305  PRO305      0.0237
    183  CD        30.7460   15.2220   26.0890 C.3   305  PRO305      0.0939
    184  N         31.9760   12.8460   22.1410 N.am  306  PRO306     -0.2716
    185  CA        32.2500   11.5210   21.5840 C.3   306  PRO306      0.1536
    186  C         33.3950   10.8970   22.3790 C.2   306  PRO306      0.2598
    187  O         34.2170   11.6130   22.9600 O.2   306  PRO306     -0.2715
    188  CB        32.6480   11.8280   20.1420 C.3   306  PRO306      0.0310
    189  CG        33.2600   13.1900   20.2460 C.3   306  PRO306      0.0237
    190  CD        32.3000   13.9020   21.1660 C.3   306  PRO306      0.0939
    191  N         33.4480    9.5700   22.4080 N.am  307  PHE307     -0.1974
    192  CA        34.4900    8.8730   23.1520 C.3   307  PHE307      0.1639
    193  C         34.7580    7.4990   22.5540 C.2   307  PHE307      0.2290
    194  O         33.9070    6.9370   21.8650 O.2   307  PHE307     -0.2864
    195  CB        34.0610    8.7160   24.6140 C.3   307  PHE307      0.0560
    196  CG        32.8320    7.8670   24.7950 C.ar  307  PHE307     -0.0200
    197  CD1       32.9290    6.4800   24.8610 C.ar  307  PHE307     -0.0042
    198  CD2       31.5730    8.4540   24.8670 C.ar  307  PHE307     -0.0042
    199  CE1       31.7890    5.6890   24.9950 C.ar  307  PHE307     -0.0003
    200  CE2       30.4250    7.6730   24.9990 C.ar  307  PHE307     -0.0003
    201  CZ        30.5340    6.2870   25.0640 C.ar  307  PHE307     -0.0000
    202  N         38.3000   15.7760   18.9090 N.3   317  VAL317     -0.1245
    203  CA        37.0170   16.4530   18.7450 C.3   317  VAL317      0.1561
    204  C         36.4390   16.8290   20.1110 C.2   317  VAL317      0.2260
    205  O         35.9060   17.9250   20.2920 O.2   317  VAL317     -0.2867
    206  CB        35.9980   15.5570   18.0050 C.3   317  VAL317      0.0252
    207  CG1       34.6270   16.2140   18.0000 C.3   317  VAL317      0.0019
    208  CG2       36.4640   15.3150   16.5810 C.3   317  VAL317      0.0019
    209  N         35.5560   20.4410   21.7130 N.3   321  PHE321     -0.1241
    210  CA        34.2630   20.7680   22.3100 C.3   321  PHE321      0.1605
    211  C         34.4780   21.6550   23.5290 C.2   321  PHE321      0.2264
    212  O         33.8250   22.6870   23.6900 O.2   321  PHE321     -0.2867
    213  CB        33.5440   19.4890   22.7430 C.3   321  PHE321      0.0534
    214  CG        32.7030   18.8600   21.6690 C.ar  321  PHE321     -0.0203
    215  CD1       32.9670   19.0920   20.3220 C.ar  321  PHE321     -0.0042
    216  CD2       31.6480   18.0160   22.0090 C.ar  321  PHE321     -0.0042
    217  CE1       32.1940   18.4970   19.3340 C.ar  321  PHE321     -0.0003
    218  CE2       30.8690   17.4140   21.0230 C.ar  321  PHE321     -0.0003
    219  CZ        31.1430   17.6560   19.6850 C.ar  321  PHE321     -0.0000
@<TRIPOS>BOND
     1    20    19    2
     2    19    18    1
     3    17    18    1
     4    18    21    1
     5   129   128    2
     6    27    26    1
     7    27    28    1
     8   140   139   ar
     9   136   135    1
    10   136   137    2
    11    26    23    1
    12    29    28    1
    13    29    30    2
    14   132   131   ar
    15    32    30    1
    16   135   134    1
    17   135   138    1
    18   133   131   ar
    19   139   141   ar
    20   139   138    1
    21   128   134   am
    22   128   127    1
    23    30    31    1
    24    16    15    2
    25   148   149    1
    26   131   130    1
    27   158   159    1
    28   158   155    1
    29   161   159   ar
    30    15    14    1
    31   149   150    1
    32   149   152    1
    33   142   143    1
    34    22    23    1
    35   154   150   am
    36   154   155    1
    37    23    24    1
    38   159   160   ar
    39   127   130    1
    40   127   126    1
    41   150   151    2
    42   120   119    2
    43    24    25    2
    44   152   153    1
    45   155   156    1
    46    14    13    1
    47   144   143    1
    48   144   145    2
    49   143   146    1
    50     4     3    2
    51   119   126   am
    52   119   118    1
    53   157   156    2
    54   156   162   am
    55     3     2    1
    56   146   147    1
    57   122   121    1
    58   122   123    1
    59    12    11    1
    60   121   118    1
    61   118   117    1
    62   125   123   ar
    63    10    11   ar
    64    10     8   ar
    65   162   163    1
    66   117   112   am
    67    11     9   ar
    68     2     1    1
    69     2     5    1
    70     8     6   ar
    71   123   124   ar
    72   165   164    2
    73     9     7   ar
    74     6     7   ar
    75     6     5    1
    76   164   163    1
    77   163   166    1
    78   112   111    1
    79   112   113    2
    80   111   114    1
    81   111   110    1
    82   115   114    1
    83   168   166    1
    84   114   116    1
    85   166   167    1
    86   208   206    1
    87    84    83    2
    88    89    86    1
    89    89    90    1
    90    83    85   am
    91    83    82    1
    92    86    85    1
    93    86    87    1
    94    33    34    1
    95    82    81    1
    96   207   206    1
    97   206   203    1
    98    81    78   am
    99    88    87    2
   100    90    92   ar
   101    90    91   ar
   102    92    94   ar
   103   203   202    1
   104   203   204    1
   105    80    77    1
   106    34    37    1
   107    34    35    1
   108    76    77    1
   109    76    74   am
   110    78    77    1
   111    78    79    2
   112    73    72    1
   113    73    74    1
   114   217   219   ar
   115   217   215   ar
   116    37    38    1
   117    36    35    2
   118    94    95   ar
   119    35    44   am
   120    91    93   ar
   121   219   218   ar
   122    74    75    2
   123   204   205    2
   124   188   189    1
   125   188   185    1
   126    67    66    2
   127   189   190    1
   128   215   214   ar
   129    44    45    1
   130    46    47    2
   131    46    45    1
   132    95    93   ar
   133    95    96    1
   134    38    39   ar
   135    38    40   ar
   136   218   216   ar
   137   190   184    1
   138    39    41   ar
   139    45    48    1
   140    66    65    1
   141   185   184    1
   142   185   186    1
   143   214   216   ar
   144   214   213    1
   145   209   210    1
   146   194   193    2
   147    40    42   ar
   148    64    65    1
   149    68    65    1
   150    68    69    1
   151   184   179   am
   152    97    98    1
   153   210   213    1
   154   210   211    1
   155    71    69   ar
   156   186   191   am
   157   186   187    2
   158   191   192    1
   159    69    70   ar
   160    48    49    1
   161   193   192    1
   162    41    43   ar
   163   192   195    1
   164    42    43   ar
   165   179   178    1
   166   179   180    2
   167   211   212    2
   168    98   101    1
   169    98    99    1
   170   172   171    2
   171   178   181    1
   172   178   177    1
   173   102    99   am
   174   102   103    1
   175   181   182    1
   176    99   100    2
   177   195   196    1
   178   104   103    1
   179   104   105    2
   180   171   177   am
   181   171   170    1
   182   196   197   ar
   183   196   198   ar
   184   197   199   ar
   185   198   200   ar
   186   177   183    1
   187   199   201   ar
   188   200   201   ar
   189   103   106    1
   190   106   107    1
   191   182   183    1
   192   169   170    1
   193   173   170    1
   194   173   174    1
   195   107   108    1
   196   107   109    1
   197    50    51    1
   198    54    55    1
   199    54    51    1
   200   174   176   am
   201   174   175    2
   202    63    62    1
   203    56    55   ar
   204    55    57   ar
   205    51    52    1
   206    62    59    1
   207    52    53    2
   208    59    58    1
   209    59    60    1
   210    60    61    2
