@<TRIPOS>MOLECULE
tmp/2zwzB00.pdb
 164 162 0 0 0
SMALL
GASTEIGER

@<TRIPOS>ATOM
      1  N         29.5090   16.8120   62.6330 N.3    26  PHE26      -0.1241
      2  CA        28.6210   15.6690   62.8450 C.3    26  PHE26       0.1605
      3  C         28.9420   15.1730   64.2590 C.2    26  PHE26       0.2264
      4  O         30.0820   15.1700   64.6690 O.2    26  PHE26      -0.2867
      5  CB        29.0040   14.5280   61.8980 C.3    26  PHE26       0.0534
      6  CG        27.8420   13.8160   61.2560 C.ar   26  PHE26      -0.0203
      7  CD1       26.5260   14.0390   61.6720 C.ar   26  PHE26      -0.0042
      8  CD2       28.0630   12.9410   60.1850 C.ar   26  PHE26      -0.0042
      9  CE1       25.4690   13.4110   61.0320 C.ar   26  PHE26      -0.0003
     10  CE2       27.0000   12.3100   59.5360 C.ar   26  PHE26      -0.0003
     11  CZ        25.7020   12.5500   59.9670 C.ar   26  PHE26      -0.0000
     12  N         28.2940   11.7530   66.5070 N.3    28  HIS28      -0.1241
     13  CA        27.7060   10.4130   66.7660 C.3    28  HIS28       0.1621
     14  C         27.9380   10.1300   68.2310 C.2    28  HIS28       0.2264
     15  O         29.0840    9.8530   68.6620 O.2    28  HIS28      -0.2867
     16  CB        28.3370    9.3260   65.9070 C.3    28  HIS28       0.0745
     17  CG        27.7760    9.2740   64.5270 C.ar   28  HIS28       0.0817
     18  ND1       27.6760   10.3930   63.7210 N.ar   28  HIS28      -0.2268
     19  CD2       27.2400    8.2520   63.8180 C.ar   28  HIS28       0.1154
     20  CE1       27.0960   10.0650   62.5800 C.ar   28  HIS28       0.1986
     21  NE2       26.8200    8.7690   62.6110 N.ar   28  HIS28      -0.2212
     22  N         35.8550    2.8000   54.9660 N.3    44  LEU44      -0.1245
     23  CA        34.7270    2.2870   54.1700 C.3    44  LEU44       0.1561
     24  C         35.0220    2.5410   52.6730 C.2    44  LEU44       0.2260
     25  O         35.3390    3.6610   52.2630 O.2    44  LEU44      -0.2867
     26  CB        33.4110    2.9760   54.5390 C.3    44  LEU44       0.0270
     27  CG        32.1770    2.5230   53.7540 C.3    44  LEU44       0.0019
     28  CD1       31.7430    1.1350   54.1830 C.3    44  LEU44       0.0001
     29  CD2       31.0850    3.4980   54.0060 C.3    44  LEU44       0.0001
     30  N         33.2870    0.9500   62.6500 N.3    58  TYR58      -0.1241
     31  CA        32.2830    1.9130   63.1730 C.3    58  TYR58       0.1605
     32  C         31.8950    1.4330   64.5760 C.2    58  TYR58       0.2264
     33  O         31.1350    0.4460   64.7110 O.2    58  TYR58      -0.2867
     34  CB        31.0120    1.9510   62.2730 C.3    58  TYR58       0.0534
     35  CG        31.2380    2.6070   60.9000 C.ar   58  TYR58      -0.0201
     36  CD1       32.5150    3.0610   60.5120 C.ar   58  TYR58      -0.0009
     37  CD2       30.1750    2.8340   60.0380 C.ar   58  TYR58      -0.0009
     38  CE1       32.7180    3.7440   59.3130 C.ar   58  TYR58       0.0417
     39  CE2       30.3490    3.5050   58.8130 C.ar   58  TYR58       0.0417
     40  CZ        31.6140    3.9780   58.4420 C.ar   58  TYR58       0.1957
     41  OH        31.7690    4.7400   57.2970 O.3    58  TYR58      -0.2866
     42  N         30.0330    2.7560   66.6300 N.3    60  GLU60      -0.1231
     43  CA        28.6030    2.9350   66.8810 C.3    60  GLU60       0.1699
     44  C         27.7870    1.6890   66.4680 C.2    60  GLU60       0.2592
     45  O         26.6100    1.6380   66.7870 O.2    60  GLU60      -0.2718
     46  CB        28.0240    4.1770   66.1590 C.3    60  GLU60       0.0402
     47  CG        27.9640    4.1340   64.6540 C.3    60  GLU60       0.1161
     48  CD        29.3040    4.4280   63.9820 C.2    60  GLU60       0.3649
     49  OE1       29.2820    4.6490   62.7550 O.co2  60  GLU60      -0.2457
     50  OE2       30.3790    4.4410   64.6430 O.co2  60  GLU60      -0.2457
     51  N         28.4250    0.7200   65.7780 N.am   61  TRP61      -0.1976
     52  CA        27.7940   -0.4990   65.3150 C.3    61  TRP61       0.1640
     53  C         28.0500   -1.6090   66.3110 C.2    61  TRP61       0.2290
     54  O         27.8200   -2.7840   66.0180 O.2    61  TRP61      -0.2864
     55  CB        28.3170   -0.9090   63.9150 C.3    61  TRP61       0.0576
     56  CG        27.5640   -0.2810   62.7050 C.ar   61  TRP61       0.0006
     57  CD1       27.5230    1.0390   62.3550 C.ar   61  TRP61       0.0946
     58  CD2       26.7350   -0.9780   61.7430 C.ar   61  TRP61       0.0152
     59  NE1       26.7180    1.2120   61.2460 N.ar   61  TRP61      -0.2442
     60  CE2       26.2210   -0.0110   60.8550 C.ar   61  TRP61       0.0810
     61  CE3       26.3790   -2.3350   61.5540 C.ar   61  TRP61       0.0012
     62  CZ2       25.3390   -0.3510   59.7740 C.ar   61  TRP61       0.0191
     63  CZ3       25.5120   -2.6730   60.4800 C.ar   61  TRP61       0.0001
     64  CH2       24.9990   -1.6670   59.6050 C.ar   61  TRP61       0.0015
     65  N         20.4210    6.6490   66.5700 N.3   122  HIS122     -0.1226
     66  CA        21.2120    5.8820   65.6230 C.3   122  HIS122      0.1752
     67  C         20.5530    4.5010   65.4520 C.2   122  HIS122      0.2596
     68  O         19.4230    4.2960   65.9400 O.2   122  HIS122     -0.2718
     69  CB        22.6630    5.8050   66.0930 C.3   122  HIS122      0.0759
     70  CG        23.6300    5.5720   64.9670 C.ar  122  HIS122      0.0818
     71  ND1       23.9760    4.3130   64.5260 N.ar  122  HIS122     -0.2268
     72  CD2       24.2210    6.4390   64.1190 C.ar  122  HIS122      0.1154
     73  CE1       24.7300    4.4270   63.4530 C.ar  122  HIS122      0.1986
     74  NE2       24.8920    5.7070   63.1840 N.ar  122  HIS122     -0.2212
     75  N         21.2240    3.5830   64.7680 N.am  123  HIS123     -0.1975
     76  CA        20.6560    2.2720   64.4630 C.3   123  HIS123      0.1656
     77  C         20.1740    1.4720   65.6390 C.2   123  HIS123      0.2291
     78  O         19.2600    0.6590   65.4470 O.2   123  HIS123     -0.2864
     79  CB        21.6260    1.3870   63.6680 C.3   123  HIS123      0.0771
     80  CG        22.2460    2.0840   62.4920 C.ar  123  HIS123      0.0820
     81  ND1       21.6020    3.0820   61.7860 N.ar  123  HIS123     -0.2267
     82  CD2       23.4660    1.9430   61.9100 C.ar  123  HIS123      0.1154
     83  CE1       22.3970    3.5300   60.8230 C.ar  123  HIS123      0.1986
     84  NE2       23.5360    2.8600   60.8740 N.ar  123  HIS123     -0.2212
     85  N         20.2500   14.2040   62.8610 N.3   165  TYR165     -0.1241
     86  CA        20.5000   12.9650   62.1790 C.3   165  TYR165      0.1605
     87  C         19.4670   11.9870   62.8020 C.2   165  TYR165      0.2264
     88  O         19.2310   11.9880   64.0150 O.2   165  TYR165     -0.2867
     89  CB        21.9150   12.4740   62.4800 C.3   165  TYR165      0.0534
     90  CG        22.1280   11.0460   62.1340 C.ar  165  TYR165     -0.0201
     91  CD1       22.8940   10.6970   61.0180 C.ar  165  TYR165     -0.0009
     92  CD2       21.5710   10.0140   62.9160 C.ar  165  TYR165     -0.0009
     93  CE1       23.1250    9.3530   60.6600 C.ar  165  TYR165      0.0417
     94  CE2       21.7870    8.6550   62.5940 C.ar  165  TYR165      0.0417
     95  CZ        22.5730    8.3410   61.4390 C.ar  165  TYR165      0.1957
     96  OH        22.7880    7.0310   61.0280 O.3   165  TYR165     -0.2866
     97  N         18.8100   15.1230   58.4820 N.3   216  TRP216     -0.1241
     98  CA        19.8100   14.1600   57.9680 C.3   216  TRP216      0.1605
     99  C         19.4010   12.6780   58.2320 C.2   216  TRP216      0.2264
    100  O         19.7580   12.0800   59.2450 O.2   216  TRP216     -0.2867
    101  CB        21.1840   14.4470   58.5930 C.3   216  TRP216      0.0550
    102  CG        22.3590   14.2500   57.6860 C.ar  216  TRP216      0.0003
    103  CD1       23.0690   15.2620   57.0090 C.ar  216  TRP216      0.0946
    104  CD2       23.0390   13.0130   57.3590 C.ar  216  TRP216      0.0152
    105  NE1       24.1230   14.6980   56.3260 N.ar  216  TRP216     -0.2442
    106  CE2       24.1370   13.3460   56.5250 C.ar  216  TRP216      0.0810
    107  CE3       22.8340   11.6780   57.6960 C.ar  216  TRP216      0.0012
    108  CZ2       25.0240   12.3980   56.0340 C.ar  216  TRP216      0.0191
    109  CZ3       23.7390   10.7040   57.1940 C.ar  216  TRP216      0.0001
    110  CH2       24.8150   11.0810   56.3740 C.ar  216  TRP216      0.0015
    111  N         19.3430    8.5240   57.5290 N.3   218  ASP218     -0.1225
    112  CA        20.3700    7.6050   57.1120 C.3   218  ASP218      0.1805
    113  C         19.7580    6.2210   56.8150 C.2   218  ASP218      0.2597
    114  O         18.7220    5.8520   57.3650 O.2   218  ASP218     -0.2718
    115  CB        21.4570    7.5520   58.2070 C.3   218  ASP218      0.1424
    116  CG        22.7950    7.0010   57.7130 C.2   218  ASP218      0.3668
    117  OD1       23.6880    6.8160   58.5280 O.co2 218  ASP218     -0.2456
    118  OD2       22.9740    6.7610   56.5180 O.co2 218  ASP218     -0.2456
    119  N         20.3820    5.4830   55.8950 N.am  219  MET219     -0.1979
    120  CA        19.9680    4.1490   55.5260 C.3   219  MET219      0.1605
    121  C         18.6230    3.9900   54.8710 C.2   219  MET219      0.2287
    122  O         17.9880    2.9590   54.9930 O.2   219  MET219     -0.2864
    123  CB        20.0910    3.2230   56.7520 C.3   219  MET219      0.0413
    124  CG        21.5760    3.0330   57.1840 C.3   219  MET219      0.0598
    125  SD        22.5720    2.0570   56.0210 S.3   219  MET219     -0.1393
    126  CE        21.6590    0.6170   55.9450 C.3   219  MET219      0.0692
    127  N         19.2310   10.4970   51.6360 N.3   248  ARG248     -0.1245
    128  CA        19.2200    9.1050   52.0730 C.3   248  ARG248      0.1563
    129  C         17.8320    8.6280   52.4490 C.2   248  ARG248      0.2260
    130  O         17.7020    7.8560   53.3950 O.2   248  ARG248     -0.2867
    131  CB        20.1790    8.9690   53.2700 C.3   248  ARG248      0.0307
    132  CG        21.6220    9.1780   52.8360 C.3   248  ARG248      0.0489
    133  CD        22.6510    8.9040   53.9120 C.3   248  ARG248      0.2205
    134  NE        23.9620    9.1560   53.3440 N.pl3 248  ARG248     -0.0865
    135  CZ        25.1060    8.6630   53.8120 C.cat 248  ARG248      0.5346
    136  NH1       26.2420    8.9720   53.1930 N.pl3 248  ARG248      0.1354
    137  NH2       25.1360    7.8850   54.8990 N.pl3 248  ARG248      0.1354
    138  N         30.3710    9.1550   51.8280 N.3   260  GLU260     -0.1245
    139  CA        30.9280    8.6930   53.0950 C.3   260  GLU260      0.1567
    140  C         32.2330    7.9640   52.8540 C.2   260  GLU260      0.2260
    141  O         32.2590    6.9310   52.2000 O.2   260  GLU260     -0.2867
    142  CB        29.9260    7.7650   53.7470 C.3   260  GLU260      0.0388
    143  CG        30.2040    7.3930   55.1590 C.3   260  GLU260      0.1160
    144  CD        28.9850    6.7570   55.7500 C.2   260  GLU260      0.3649
    145  OE1       29.1390    5.7180   56.4480 O.co2 260  GLU260     -0.2457
    146  OE2       27.8660    7.3020   55.5190 O.co2 260  GLU260     -0.2457
    147  N         31.1880   13.2520   54.3700 N.3   277  THR277     -0.1218
    148  CA        31.2770   13.0310   55.7740 C.3   277  THR277      0.1862
    149  C         32.1640   11.8600   56.0530 C.2   277  THR277      0.2287
    150  O         32.2310   10.8980   55.2520 O.2   277  THR277     -0.2866
    151  CB        29.8690   12.7860   56.4270 C.3   277  THR277      0.1770
    152  OG1       30.0220   12.7990   57.8540 O.3   277  THR277     -0.2211
    153  CG2       29.2510   11.4280   55.9890 C.3   277  THR277      0.0375
    154  N         32.6300    6.5340   63.6440 N.3   284  PHE284     -0.1241
    155  CA        31.8890    7.7740   63.8860 C.3   284  PHE284      0.1605
    156  C         31.7400    7.8700   65.3800 C.2   284  PHE284      0.2264
    157  O         31.9920    8.9180   65.9380 O.2   284  PHE284     -0.2867
    158  CB        30.5210    7.7990   63.1890 C.3   284  PHE284      0.0534
    159  CG        30.6360    7.9610   61.7340 C.ar  284  PHE284     -0.0203
    160  CD1       30.9410    6.8650   60.9120 C.ar  284  PHE284     -0.0042
    161  CD2       30.5210    9.1970   61.1760 C.ar  284  PHE284     -0.0042
    162  CE1       31.1320    7.0210   59.5150 C.ar  284  PHE284     -0.0003
    163  CE2       30.7010    9.3980   59.8200 C.ar  284  PHE284     -0.0003
    164  CZ        31.0090    8.3180   58.9610 C.ar  284  PHE284     -0.0000
@<TRIPOS>BOND
     1   127   128    1
     2   138   139    1
     3   128   129    1
     4   128   131    1
     5   141   140    2
     6    25    24    2
     7   129   130    2
     8    24    23    1
     9   132   131    1
    10   132   133    1
    11   140   139    1
    12   139   142    1
    13   136   135    1
    14   134   135    2
    15   134   133    1
    16   142   143    1
    17    27    29    1
    18    27    28    1
    19    27    26    1
    20   135   137    1
    21    23    26    1
    22    23    22    1
    23   147   148    1
    24   121   122    2
    25   121   120    1
    26   143   144    1
    27   150   149    2
    28   146   144   ar
    29   120   119    1
    30   120   123    1
    31   144   145   ar
    32   148   149    1
    33   148   151    1
    34   119   113   am
    35   126   125    1
    36   153   151    1
    37   125   124    1
    38   108   110   ar
    39   108   106   ar
    40   105   106   ar
    41   105   103   ar
    42   110   109   ar
    43   151   152    1
    44   118   116   ar
    45   106   104   ar
    46   123   124    1
    47   113   112    1
    48   113   114    2
    49   103   102   ar
    50   112   111    1
    51   112   115    1
    52   109   107   ar
    53    41    40    1
    54   104   102   ar
    55   104   107   ar
    56   102   101    1
    57   116   115    1
    58   116   117   ar
    59    98    99    1
    60    98    97    1
    61    98   101    1
    62    99   100    2
    63    40    39   ar
    64    40    38   ar
    65    39    37   ar
    66   164   162   ar
    67   164   163   ar
    68    38    36   ar
    69   162   160   ar
    70    10    11   ar
    71    10     8   ar
    72    64    62   ar
    73    64    63   ar
    74    62    60   ar
    75   163   161   ar
    76    11     9   ar
    77    37    35   ar
    78     8     6   ar
    79    63    61   ar
    80    36    35   ar
    81    93    91   ar
    82    93    95   ar
    83    83    84   ar
    84    83    81   ar
    85    60    59   ar
    86    60    58   ar
    87    84    82   ar
    88    35    34    1
    89   160   159   ar
    90    91    90   ar
    91    96    95    1
    92     9     7   ar
    93   161   159   ar
    94    59    57   ar
    95     6     7   ar
    96     6     5    1
    97    95    94   ar
    98    61    58   ar
    99   159   158    1
   100    58    56   ar
   101    81    80   ar
   102     5     2    1
   103    82    80   ar
   104    90    89    1
   105    90    92   ar
   106    86    89    1
   107    86    87    1
   108    86    85    1
   109    34    31    1
   110    57    56   ar
   111    80    79    1
   112    20    21   ar
   113    20    18   ar
   114    94    92   ar
   115    21    19   ar
   116     1     2    1
   117    30    31    1
   118    56    55    1
   119    49    48   ar
   120    87    88    2
   121     2     3    1
   122    31    32    1
   123    74    73   ar
   124    74    72   ar
   125   158   155    1
   126    73    71   ar
   127   154   155    1
   128    79    76    1
   129    18    17   ar
   130    19    17   ar
   131   155   156    1
   132    55    52    1
   133    48    50   ar
   134    48    47    1
   135    72    70   ar
   136     3     4    2
   137    76    75    1
   138    76    77    1
   139    71    70   ar
   140    17    16    1
   141    32    33    2
   142    47    46    1
   143    75    67   am
   144    70    69    1
   145    52    51    1
   146    52    53    1
   147   156   157    2
   148    78    77    2
   149    67    66    1
   150    67    68    2
   151    66    69    1
   152    66    65    1
   153    51    44   am
   154    16    13    1
   155    54    53    2
   156    46    43    1
   157    44    45    2
   158    44    43    1
   159    12    13    1
   160    42    43    1
   161    13    14    1
   162    14    15    2
