@<TRIPOS>MOLECULE
tmp/2zx5B00.pdb
 219 216 0 0 0
SMALL
GASTEIGER

@<TRIPOS>ATOM
      1  N         29.5240   16.7840   62.7630 N.3    26  PHE26      -0.1241
      2  CA        28.6290   15.6220   62.9240 C.3    26  PHE26       0.1605
      3  C         28.9550   15.0820   64.3180 C.2    26  PHE26       0.2264
      4  O         30.1000   15.0910   64.7790 O.2    26  PHE26      -0.2867
      5  CB        29.0020   14.5260   61.9310 C.3    26  PHE26       0.0534
      6  CG        27.8360   13.8960   61.1910 C.ar   26  PHE26      -0.0203
      7  CD1       26.5270   14.1080   61.5670 C.ar   26  PHE26      -0.0042
      8  CD2       28.0740   13.0490   60.1040 C.ar   26  PHE26      -0.0042
      9  CE1       25.4700   13.4870   60.8710 C.ar   26  PHE26      -0.0003
     10  CE2       27.0190   12.4190   59.4010 C.ar   26  PHE26      -0.0003
     11  CZ        25.7290   12.6460   59.7940 C.ar   26  PHE26      -0.0000
     12  N         28.2510   11.6160   66.5720 N.3    28  HIS28      -0.1241
     13  CA        27.6940   10.2880   66.7830 C.3    28  HIS28       0.1621
     14  C         27.9680   10.0360   68.2430 C.2    28  HIS28       0.2264
     15  O         29.0990    9.7540   68.6530 O.2    28  HIS28      -0.2867
     16  CB        28.3680    9.2340   65.8950 C.3    28  HIS28       0.0745
     17  CG        27.8520    9.2380   64.4890 C.ar   28  HIS28       0.0817
     18  ND1       27.8530   10.3710   63.7000 N.ar   28  HIS28      -0.2268
     19  CD2       27.2340    8.2770   63.7610 C.ar   28  HIS28       0.1154
     20  CE1       27.2480   10.1110   62.5550 C.ar   28  HIS28       0.1986
     21  NE2       26.8620    8.8500   62.5630 N.ar   28  HIS28      -0.2212
     22  N         35.8330    2.7370   54.7900 N.3    44  LEU44      -0.1245
     23  CA        34.7190    2.1750   54.0620 C.3    44  LEU44       0.1561
     24  C         35.0080    2.4000   52.5880 C.2    44  LEU44       0.2260
     25  O         35.2940    3.5360   52.1560 O.2    44  LEU44      -0.2867
     26  CB        33.3950    2.8560   54.4280 C.3    44  LEU44       0.0270
     27  CG        32.1990    2.4530   53.5530 C.3    44  LEU44       0.0019
     28  CD1       31.6280    1.1020   53.9720 C.3    44  LEU44       0.0001
     29  CD2       31.1890    3.5240   53.6650 C.3    44  LEU44       0.0001
     30  N         33.7670   -5.8870   51.7370 N.3    49  MET49      -0.1245
     31  CA        32.4770   -6.0860   52.3790 C.3    49  MET49       0.1570
     32  C         32.0720   -7.5040   52.8310 C.2    49  MET49       0.2261
     33  O         31.0370   -7.6680   53.4590 O.2    49  MET49      -0.2867
     34  CB        31.3780   -5.4480   51.5160 C.3    49  MET49       0.0387
     35  CG        31.5370   -3.9060   51.3730 C.3    49  MET49       0.0595
     36  SD        31.6310   -2.9120   52.9450 S.3    49  MET49      -0.1393
     37  CE        29.7980   -2.8520   53.4770 C.3    49  MET49       0.0692
     38  N         33.8610   -6.8630   56.3400 N.3    52  TRP52      -0.1227
     39  CA        33.4790   -5.6210   57.0060 C.3    52  TRP52       0.1737
     40  C         32.5750   -5.7050   58.2640 C.2    52  TRP52       0.2595
     41  O         32.9160   -5.1100   59.2920 O.2    52  TRP52      -0.2718
     42  CB        32.8620   -4.6680   55.9590 C.3    52  TRP52       0.0564
     43  CG        32.2900   -3.4210   56.5580 C.ar   52  TRP52       0.0003
     44  CD1       31.0450   -3.2710   57.1250 C.ar   52  TRP52       0.0946
     45  CD2       32.9550   -2.1540   56.7040 C.ar   52  TRP52       0.0152
     46  NE1       30.9050   -1.9850   57.6060 N.ar   52  TRP52      -0.2442
     47  CE2       32.0600   -1.2850   57.3610 C.ar   52  TRP52       0.0810
     48  CE3       34.2120   -1.6730   56.3400 C.ar   52  TRP52       0.0012
     49  CZ2       32.3960    0.0510   57.6610 C.ar   52  TRP52       0.0191
     50  CZ3       34.5450   -0.3610   56.6320 C.ar   52  TRP52       0.0001
     51  CH2       33.6410    0.4890   57.2870 C.ar   52  TRP52       0.0015
     52  N         31.4330   -6.4090   58.2160 N.am   53  PHE53      -0.1976
     53  CA        30.5780   -6.4690   59.4160 C.3    53  PHE53       0.1639
     54  C         31.1510   -7.3070   60.5290 C.2    53  PHE53       0.2290
     55  O         30.6750   -7.2190   61.6590 O.2    53  PHE53      -0.2864
     56  CB        29.1610   -6.9790   59.0940 C.3    53  PHE53       0.0560
     57  CG        28.4050   -6.0460   58.2570 C.ar   53  PHE53      -0.0200
     58  CD1       28.2580   -6.2840   56.8820 C.ar   53  PHE53      -0.0042
     59  CD2       28.0040   -4.8170   58.7830 C.ar   53  PHE53      -0.0042
     60  CE1       27.7420   -5.3220   56.0250 C.ar   53  PHE53      -0.0003
     61  CE2       27.4710   -3.8240   57.9230 C.ar   53  PHE53      -0.0003
     62  CZ        27.3470   -4.0920   56.5320 C.ar   53  PHE53      -0.0000
     63  N         33.2430    0.8230   62.5050 N.3    58  TYR58      -0.1241
     64  CA        32.2370    1.7620   62.9850 C.3    58  TYR58       0.1605
     65  C         31.8230    1.3170   64.3780 C.2    58  TYR58       0.2264
     66  O         31.0580    0.3590   64.5340 O.2    58  TYR58      -0.2867
     67  CB        31.0240    1.7590   62.0570 C.3    58  TYR58       0.0534
     68  CG        31.2240    2.5320   60.7600 C.ar   58  TYR58      -0.0201
     69  CD1       32.5040    3.0010   60.3850 C.ar   58  TYR58      -0.0009
     70  CD2       30.1410    2.7660   59.8970 C.ar   58  TYR58      -0.0009
     71  CE1       32.7080    3.6870   59.1720 C.ar   58  TYR58       0.0417
     72  CE2       30.3200    3.4570   58.6760 C.ar   58  TYR58       0.0417
     73  CZ        31.6200    3.9220   58.3170 C.ar   58  TYR58       0.1957
     74  OH        31.7950    4.6340   57.1450 O.3    58  TYR58      -0.2866
     75  N         29.9540    2.8010   66.4990 N.3    60  GLU60      -0.1231
     76  CA        28.5220    2.9720   66.8180 C.3    60  GLU60       0.1699
     77  C         27.7240    1.6840   66.3830 C.2    60  GLU60       0.2592
     78  O         26.5660    1.5290   66.7410 O.2    60  GLU60      -0.2718
     79  CB        27.9110    4.2260   66.1480 C.3    60  GLU60       0.0402
     80  CG        27.8830    4.2270   64.6360 C.3    60  GLU60       0.1161
     81  CD        29.2810    4.4310   63.9940 C.2    60  GLU60       0.3649
     82  OE1       29.3400    4.4870   62.7330 O.co2  60  GLU60      -0.2457
     83  OE2       30.3100    4.5310   64.7540 O.co2  60  GLU60      -0.2457
     84  N         28.3840    0.7880   65.6380 N.am   61  TRP61      -0.1976
     85  CA        27.8090   -0.4610   65.2050 C.3    61  TRP61       0.1640
     86  C         28.0770   -1.5630   66.2130 C.2    61  TRP61       0.2290
     87  O         27.8230   -2.7230   65.9310 O.2    61  TRP61      -0.2864
     88  CB        28.3490   -0.9080   63.8110 C.3    61  TRP61       0.0576
     89  CG        27.5980   -0.3390   62.6140 C.ar   61  TRP61       0.0006
     90  CD1       27.5110    0.9660   62.2730 C.ar   61  TRP61       0.0946
     91  CD2       26.7960   -1.0610   61.6580 C.ar   61  TRP61       0.0152
     92  NE1       26.7150    1.1160   61.1730 N.ar   61  TRP61      -0.2442
     93  CE2       26.2580   -0.1160   60.7740 C.ar   61  TRP61       0.0810
     94  CE3       26.4870   -2.4210   61.4600 C.ar   61  TRP61       0.0012
     95  CZ2       25.4200   -0.4790   59.6950 C.ar   61  TRP61       0.0191
     96  CZ3       25.6680   -2.7820   60.3880 C.ar   61  TRP61       0.0001
     97  CH2       25.1470   -1.8130   59.5180 C.ar   61  TRP61       0.0015
     98  N         20.3140    6.5580   66.5330 N.3   122  HIS122     -0.1226
     99  CA        21.1580    5.7940   65.6460 C.3   122  HIS122      0.1752
    100  C         20.5790    4.3990   65.4190 C.2   122  HIS122      0.2596
    101  O         19.4640    4.1180   65.8910 O.2   122  HIS122     -0.2718
    102  CB        22.5540    5.7490   66.1940 C.3   122  HIS122      0.0759
    103  CG        23.5630    5.5550   65.1050 C.ar  122  HIS122      0.0818
    104  ND1       23.8990    4.3080   64.6110 N.ar  122  HIS122     -0.2268
    105  CD2       24.2070    6.4500   64.3250 C.ar  122  HIS122      0.1154
    106  CE1       24.7050    4.4480   63.5810 C.ar  122  HIS122      0.1986
    107  NE2       24.9080    5.7350   63.3880 N.ar  122  HIS122     -0.2212
    108  N         21.2790    3.5480   64.6690 N.am  123  HIS123     -0.1975
    109  CA        20.7660    2.1960   64.3750 C.3   123  HIS123      0.1656
    110  C         20.2720    1.3710   65.5470 C.2   123  HIS123      0.2291
    111  O         19.4190    0.5340   65.3370 O.2   123  HIS123     -0.2864
    112  CB        21.7620    1.3610   63.5970 C.3   123  HIS123      0.0771
    113  CG        22.3340    2.0770   62.4110 C.ar  123  HIS123      0.0820
    114  ND1       21.6460    3.0660   61.7340 N.ar  123  HIS123     -0.2267
    115  CD2       23.5180    1.9230   61.7580 C.ar  123  HIS123      0.1154
    116  CE1       22.3830    3.4850   60.7190 C.ar  123  HIS123      0.1986
    117  NE2       23.5230    2.8090   60.7100 N.ar  123  HIS123     -0.2212
    118  N         20.2810   14.1920   62.7870 N.3   165  TYR165     -0.1241
    119  CA        20.5650   12.9110   62.1840 C.3   165  TYR165      0.1605
    120  C         19.5430   11.9590   62.8040 C.2   165  TYR165      0.2264
    121  O         19.3030   11.9930   64.0070 O.2   165  TYR165     -0.2867
    122  CB        21.9530   12.4220   62.5580 C.3   165  TYR165      0.0534
    123  CG        22.1700   11.0050   62.1680 C.ar  165  TYR165     -0.0201
    124  CD1       22.9260   10.6820   61.0380 C.ar  165  TYR165     -0.0009
    125  CD2       21.5900    9.9700   62.8980 C.ar  165  TYR165     -0.0009
    126  CE1       23.1000    9.3460   60.6480 C.ar  165  TYR165      0.0417
    127  CE2       21.7470    8.6350   62.5260 C.ar  165  TYR165      0.0417
    128  CZ        22.4950    8.3210   61.4070 C.ar  165  TYR165      0.1957
    129  OH        22.6510    7.0010   61.0260 O.3   165  TYR165     -0.2866
    130  N         26.4380   -7.3720   53.2210 N.3   182  PRO182     -0.2116
    131  CA        25.6600   -6.2550   52.6680 C.3   182  PRO182      0.1372
    132  C         24.2770   -6.7200   52.1460 C.2   182  PRO182      0.2244
    133  O         23.3040   -6.0040   52.2690 O.2   182  PRO182     -0.2868
    134  CB        26.6120   -5.6800   51.6060 C.3   182  PRO182      0.0268
    135  CG        27.9870   -6.0670   52.1490 C.3   182  PRO182      0.0207
    136  CD        27.7530   -7.4890   52.5810 C.3   182  PRO182      0.0892
    137  N         21.0020   -6.4000   54.3610 N.3   185  LEU185     -0.1245
    138  CA        20.3070   -5.1120   54.4190 C.3   185  LEU185      0.1561
    139  C         19.0080   -5.0070   53.5960 C.2   185  LEU185      0.2260
    140  O         18.0890   -4.1810   53.8810 O.2   185  LEU185     -0.2867
    141  CB        21.2570   -3.9980   54.0470 C.3   185  LEU185      0.0270
    142  CG        22.3410   -3.7980   55.1000 C.3   185  LEU185      0.0019
    143  CD1       23.3880   -2.8160   54.5890 C.3   185  LEU185      0.0001
    144  CD2       21.7480   -3.2970   56.3760 C.3   185  LEU185      0.0001
    145  N         18.8620   15.1350   58.3890 N.3   216  TRP216     -0.1241
    146  CA        19.8390   14.1870   57.8700 C.3   216  TRP216      0.1605
    147  C         19.4350   12.7290   58.1570 C.2   216  TRP216      0.2264
    148  O         19.6980   12.1640   59.2270 O.2   216  TRP216     -0.2867
    149  CB        21.2270   14.5260   58.4500 C.3   216  TRP216      0.0550
    150  CG        22.4070   14.2760   57.5260 C.ar  216  TRP216      0.0003
    151  CD1       23.1590   15.2070   56.8770 C.ar  216  TRP216      0.0946
    152  CD2       23.0560   13.0350   57.3080 C.ar  216  TRP216      0.0152
    153  NE1       24.2690   14.6340   56.2940 N.ar  216  TRP216     -0.2442
    154  CE2       24.2270   13.2970   56.5470 C.ar  216  TRP216      0.0810
    155  CE3       22.7610   11.7220   57.6670 C.ar  216  TRP216      0.0012
    156  CZ2       25.0930   12.2970   56.1680 C.ar  216  TRP216      0.0191
    157  CZ3       23.5910   10.7500   57.2960 C.ar  216  TRP216      0.0001
    158  CH2       24.7700   11.0260   56.5490 C.ar  216  TRP216      0.0015
    159  N         19.3500    8.5230   57.5650 N.3   218  ASP218     -0.1225
    160  CA        20.3050    7.5240   57.1940 C.3   218  ASP218      0.1805
    161  C         19.6990    6.1460   56.8800 C.2   218  ASP218      0.2597
    162  O         18.6570    5.7580   57.4060 O.2   218  ASP218     -0.2718
    163  CB        21.3700    7.4150   58.2670 C.3   218  ASP218      0.1424
    164  CG        22.7030    7.0600   57.7140 C.2   218  ASP218      0.3668
    165  OD1       23.6100    6.8830   58.5120 O.co2 218  ASP218     -0.2456
    166  OD2       22.8760    6.9820   56.4960 O.co2 218  ASP218     -0.2456
    167  N         20.3730    5.4290   55.9930 N.am  219  MET219     -0.1979
    168  CA        20.0270    4.0760   55.5400 C.3   219  MET219      0.1605
    169  C         18.7250    3.9000   54.8250 C.2   219  MET219      0.2287
    170  O         18.1480    2.8080   54.8470 O.2   219  MET219     -0.2864
    171  CB        20.0980    3.0850   56.6990 C.3   219  MET219      0.0413
    172  CG        21.5510    2.7790   57.1500 C.3   219  MET219      0.0598
    173  SD        22.4350    1.6860   56.0010 S.3   219  MET219     -0.1393
    174  CE        21.4470    0.2820   55.9230 C.3   219  MET219      0.0692
    175  N         19.3050   10.4850   51.6320 N.3   248  ARG248     -0.1245
    176  CA        19.2540    9.1080   52.0550 C.3   248  ARG248      0.1563
    177  C         17.8650    8.6360   52.4270 C.2   248  ARG248      0.2260
    178  O         17.7190    7.8360   53.3440 O.2   248  ARG248     -0.2867
    179  CB        20.2540    8.8950   53.2060 C.3   248  ARG248      0.0307
    180  CG        21.6870    9.3010   52.8110 C.3   248  ARG248      0.0489
    181  CD        22.7020    9.0110   53.9110 C.3   248  ARG248      0.2205
    182  NE        24.0430    9.2170   53.3830 N.pl3 248  ARG248     -0.0865
    183  CZ        25.1640    8.7030   53.8860 C.cat 248  ARG248      0.5346
    184  NH1       26.3250    8.9710   53.2880 N.pl3 248  ARG248      0.1354
    185  NH2       25.1390    7.9290   54.9610 N.pl3 248  ARG248      0.1354
    186  N         30.3440    9.1170   51.8190 N.3   260  GLU260     -0.1245
    187  CA        30.9440    8.6020   53.0550 C.3   260  GLU260      0.1567
    188  C         32.2460    7.8530   52.7690 C.2   260  GLU260      0.2260
    189  O         32.2570    6.7940   52.0760 O.2   260  GLU260     -0.2867
    190  CB        29.9330    7.6650   53.6910 C.3   260  GLU260      0.0388
    191  CG        29.9860    7.5690   55.1560 C.3   260  GLU260      0.1160
    192  CD        28.8290    6.7890   55.6700 C.2   260  GLU260      0.3649
    193  OE1       29.0760    5.7070   56.2370 O.co2 260  GLU260     -0.2457
    194  OE2       27.6800    7.2500   55.5040 O.co2 260  GLU260     -0.2457
    195  N         32.9280    5.8750   49.4500 N.3   263  VAL263     -0.1245
    196  CA        31.6260    5.6830   48.8130 C.3   263  VAL263      0.1561
    197  C         30.9860    6.9750   48.3050 C.2   263  VAL263      0.2260
    198  O         30.6640    7.8990   49.0620 O.2   263  VAL263     -0.2867
    199  CB        30.6900    4.8770   49.7800 C.3   263  VAL263      0.0252
    200  CG1       29.2560    4.6800   49.1750 C.3   263  VAL263      0.0019
    201  CG2       31.3450    3.5270   50.0800 C.3   263  VAL263      0.0019
    202  N         31.2410   13.2510   54.2970 N.3   277  THR277     -0.1218
    203  CA        31.2870   12.9730   55.6960 C.3   277  THR277      0.1862
    204  C         32.2130   11.8140   55.8780 C.2   277  THR277      0.2287
    205  O         32.3380   10.9520   54.9790 O.2   277  THR277     -0.2866
    206  CB        29.8550   12.6750   56.2960 C.3   277  THR277      0.1770
    207  OG1       29.9540   12.7060   57.7220 O.3   277  THR277     -0.2211
    208  CG2       29.2820   11.2700   55.8460 C.3   277  THR277      0.0375
    209  N         32.6440    6.5060   63.5490 N.3   284  PHE284     -0.1241
    210  CA        31.9020    7.7530   63.8020 C.3   284  PHE284      0.1605
    211  C         31.8280    7.8120   65.2970 C.2   284  PHE284      0.2264
    212  O         32.3670    8.7200   65.8900 O.2   284  PHE284     -0.2867
    213  CB        30.5190    7.7620   63.1540 C.3   284  PHE284      0.0534
    214  CG        30.5980    8.0440   61.7200 C.ar  284  PHE284     -0.0203
    215  CD1       30.9580    7.0300   60.8120 C.ar  284  PHE284     -0.0042
    216  CD2       30.4530    9.3300   61.2580 C.ar  284  PHE284     -0.0042
    217  CE1       31.1790    7.3180   59.4270 C.ar  284  PHE284     -0.0003
    218  CE2       30.6750    9.6350   59.8780 C.ar  284  PHE284     -0.0003
    219  CZ        31.0390    8.6350   58.9580 C.ar  284  PHE284     -0.0000
@<TRIPOS>BOND
     1   197   196    1
     2   197   198    2
     3   196   195    1
     4   196   199    1
     5   200   199    1
     6   199   201    1
     7    35    34    1
     8    35    36    1
     9    34    31    1
    10   134   135    1
    11   134   131    1
    12   175   176    1
    13    30    31    1
    14   186   187    1
    15   176   177    1
    16   176   179    1
    17   189   188    2
    18   132   133    2
    19   132   131    1
    20   135   136    1
    21    25    24    2
    22    31    32    1
    23   177   178    2
    24   136   130    1
    25    24    23    1
    26   131   130    1
    27   188   187    1
    28   180   179    1
    29   180   181    1
    30    32    33    2
    31    36    37    1
    32   187   190    1
    33   184   183    1
    34   182   183    2
    35   182   181    1
    36    27    29    1
    37    27    28    1
    38    27    26    1
    39   139   140    2
    40   139   138    1
    41   190   191    1
    42   183   185    1
    43   141   138    1
    44   141   142    1
    45    23    26    1
    46    23    22    1
    47   202   203    1
    48   137   138    1
    49   143   142    1
    50   169   170    2
    51   169   168    1
    52   205   204    2
    53   142   144    1
    54   191   192    1
    55   194   192   ar
    56   168   167    1
    57   168   171    1
    58   192   193   ar
    59   203   204    1
    60   203   206    1
    61   208   206    1
    62   174   173    1
    63    42    43    1
    64    42    39    1
    65   167   161   am
    66   173   172    1
    67    60    62   ar
    68    60    58   ar
    69   156   154   ar
    70   156   158   ar
    71   153   154   ar
    72   153   151   ar
    73   206   207    1
    74    38    39    1
    75    48    50   ar
    76    48    45   ar
    77   166   164   ar
    78    62    61   ar
    79   154   152   ar
    80   158   157   ar
    81    43    45   ar
    82    43    44   ar
    83    50    51   ar
    84   171   172    1
    85    45    47   ar
    86   151   150   ar
    87   161   160    1
    88   161   162    2
    89    58    57   ar
    90    39    40    1
    91    44    46   ar
    92    74    73    1
    93   160   159    1
    94   160   163    1
    95    51    49   ar
    96   157   155   ar
    97   152   150   ar
    98   152   155   ar
    99    47    46   ar
   100    47    49   ar
   101   150   149    1
   102   164   163    1
   103   164   165   ar
   104   146   147    1
   105   146   145    1
   106   146   149    1
   107    61    59   ar
   108   147   148    2
   109    52    40   am
   110    52    53    1
   111    57    59   ar
   112    57    56    1
   113    40    41    2
   114    73    72   ar
   115    73    71   ar
   116    72    70   ar
   117   219   217   ar
   118   219   218   ar
   119    56    53    1
   120    71    69   ar
   121    10    11   ar
   122    10     8   ar
   123    53    54    1
   124   217   215   ar
   125    97    95   ar
   126    97    96   ar
   127    95    93   ar
   128    11     9   ar
   129   218   216   ar
   130    70    68   ar
   131     8     6   ar
   132    69    68   ar
   133    96    94   ar
   134    54    55    2
   135   126   124   ar
   136   126   128   ar
   137   117   116   ar
   138   117   115   ar
   139   116   114   ar
   140    68    67    1
   141    93    92   ar
   142    93    91   ar
   143   215   214   ar
   144     9     7   ar
   145   129   128    1
   146   124   123   ar
   147    92    90   ar
   148     6     7   ar
   149     6     5    1
   150   216   214   ar
   151   128   127   ar
   152    94    91   ar
   153    91    89   ar
   154   214   213    1
   155   114   113   ar
   156   115   113   ar
   157     5     2    1
   158    67    64    1
   159   123   122    1
   160   123   125   ar
   161   119   122    1
   162   119   118    1
   163   119   120    1
   164    90    89   ar
   165   113   112    1
   166    63    64    1
   167   127   125   ar
   168    20    21   ar
   169    20    18   ar
   170    21    19   ar
   171    89    88    1
   172    82    81   ar
   173     1     2    1
   174   120   121    2
   175     2     3    1
   176    64    65    1
   177   213   210    1
   178   107   106   ar
   179   107   105   ar
   180   209   210    1
   181   106   104   ar
   182   112   109    1
   183    18    17   ar
   184    19    17   ar
   185   210   211    1
   186    88    85    1
   187    81    80    1
   188    81    83   ar
   189     3     4    2
   190   105   103   ar
   191   109   108    1
   192   109   110    1
   193    65    66    2
   194    17    16    1
   195   104   103   ar
   196    80    79    1
   197   108   100   am
   198   103   102    1
   199    85    84    1
   200    85    86    1
   201   211   212    2
   202   111   110    2
   203   100    99    1
   204   100   101    2
   205    84    77   am
   206    99   102    1
   207    99    98    1
   208    16    13    1
   209    87    86    2
   210    79    76    1
   211    77    78    2
   212    77    76    1
   213    75    76    1
   214    12    13    1
   215    13    14    1
   216    14    15    2
