@<TRIPOS>MOLECULE
tmp/2zx6B00.pdb
 198 194 0 0 0
SMALL
GASTEIGER

@<TRIPOS>ATOM
      1  N         29.4550   16.9160   62.4370 N.3    26  PHE26      -0.1241
      2  CA        28.5910   15.7540   62.6620 C.3    26  PHE26       0.1605
      3  C         28.9520   15.2480   64.0640 C.2    26  PHE26       0.2264
      4  O         30.1160   15.2230   64.4380 O.2    26  PHE26      -0.2867
      5  CB        28.9630   14.6000   61.7240 C.3    26  PHE26       0.0534
      6  CG        27.8030   13.9120   61.0760 C.ar   26  PHE26      -0.0203
      7  CD1       26.4860   14.2020   61.4370 C.ar   26  PHE26      -0.0042
      8  CD2       28.0310   13.0190   60.0180 C.ar   26  PHE26      -0.0042
      9  CE1       25.4100   13.6140   60.7390 C.ar   26  PHE26      -0.0003
     10  CE2       26.9710   12.4250   59.3060 C.ar   26  PHE26      -0.0003
     11  CZ        25.6640   12.7190   59.6610 C.ar   26  PHE26      -0.0000
     12  N         28.2910   11.7900   66.3460 N.3    28  HIS28      -0.1241
     13  CA        27.6920   10.4870   66.6060 C.3    28  HIS28       0.1621
     14  C         27.9530   10.2430   68.0880 C.2    28  HIS28       0.2264
     15  O         29.1070    9.9800   68.5290 O.2    28  HIS28      -0.2867
     16  CB        28.3160    9.3810   65.7370 C.3    28  HIS28       0.0745
     17  CG        27.7480    9.3360   64.3570 C.ar   28  HIS28       0.0817
     18  ND1       27.6390   10.4580   63.5610 N.ar   28  HIS28      -0.2268
     19  CD2       27.2580    8.3090   63.6170 C.ar   28  HIS28       0.1154
     20  CE1       27.1130   10.1290   62.3930 C.ar   28  HIS28       0.1986
     21  NE2       26.8740    8.8340   62.3980 N.ar   28  HIS28      -0.2212
     22  N         35.7930    3.0310   54.6110 N.3    44  LEU44      -0.1245
     23  CA        34.6410    2.5150   53.8500 C.3    44  LEU44       0.1561
     24  C         34.9350    2.7440   52.3710 C.2    44  LEU44       0.2260
     25  O         35.3030    3.8350   51.9530 O.2    44  LEU44      -0.2867
     26  CB        33.3230    3.2050   54.2470 C.3    44  LEU44       0.0270
     27  CG        32.1010    2.6830   53.4940 C.3    44  LEU44       0.0019
     28  CD1       31.7370    1.3270   53.9870 C.3    44  LEU44       0.0001
     29  CD2       30.9720    3.6300   53.6880 C.3    44  LEU44       0.0001
     30  N         33.3650    1.0780   62.4450 N.3    58  TYR58      -0.1241
     31  CA        32.3680    2.0430   62.9160 C.3    58  TYR58       0.1605
     32  C         31.9320    1.6050   64.3240 C.2    58  TYR58       0.2264
     33  O         31.0760    0.7040   64.4620 O.2    58  TYR58      -0.2867
     34  CB        31.1450    1.9910   61.9950 C.3    58  TYR58       0.0534
     35  CG        31.2920    2.6890   60.6300 C.ar   58  TYR58      -0.0201
     36  CD1       32.5300    3.2210   60.2010 C.ar   58  TYR58      -0.0009
     37  CD2       30.1660    2.8940   59.8190 C.ar   58  TYR58      -0.0009
     38  CE1       32.6390    3.9340   59.0320 C.ar   58  TYR58       0.0417
     39  CE2       30.2650    3.6260   58.6230 C.ar   58  TYR58       0.0417
     40  CZ        31.5030    4.1470   58.2300 C.ar   58  TYR58       0.1957
     41  OH        31.5970    4.8700   57.0760 O.3    58  TYR58      -0.2866
     42  N         30.0150    2.9680   66.4140 N.3    60  GLU60      -0.1231
     43  CA        28.5680    3.0900   66.6650 C.3    60  GLU60       0.1699
     44  C         27.8230    1.7560   66.2430 C.2    60  GLU60       0.2592
     45  O         26.6580    1.6240   66.5710 O.2    60  GLU60      -0.2718
     46  CB        27.8460    4.2020   65.8720 C.3    60  GLU60       0.0402
     47  CG        28.6420    5.2190   65.1180 C.3    60  GLU60       0.1161
     48  CD        29.6080    4.6750   64.0160 C.2    60  GLU60       0.3649
     49  OE1       29.1900    4.4840   62.8480 O.co2  60  GLU60      -0.2457
     50  OE2       30.8050    4.4900   64.3600 O.co2  60  GLU60      -0.2457
     51  N         28.4600    0.8380   65.5010 N.am   61  TRP61      -0.1976
     52  CA        27.8190   -0.4230   65.0890 C.3    61  TRP61       0.1640
     53  C         28.0720   -1.5350   66.1160 C.2    61  TRP61       0.2290
     54  O         27.8090   -2.7130   65.8690 O.2    61  TRP61      -0.2864
     55  CB        28.3250   -0.9180   63.7010 C.3    61  TRP61       0.0576
     56  CG        27.6410   -0.2390   62.5060 C.ar   61  TRP61       0.0006
     57  CD1       27.6360    1.1110   62.1920 C.ar   61  TRP61       0.0946
     58  CD2       26.7730   -0.8760   61.5440 C.ar   61  TRP61       0.0152
     59  NE1       26.7920    1.3430   61.0970 N.ar   61  TRP61      -0.2442
     60  CE2       26.2630    0.1370   60.6880 C.ar   61  TRP61       0.0810
     61  CE3       26.3690   -2.2120   61.3280 C.ar   61  TRP61       0.0012
     62  CZ2       25.3720   -0.1570   59.6340 C.ar   61  TRP61       0.0191
     63  CZ3       25.4770   -2.4900   60.2790 C.ar   61  TRP61       0.0001
     64  CH2       24.9950   -1.4590   59.4510 C.ar   61  TRP61       0.0015
     65  N         20.4020    6.7270   66.3420 N.3   122  HIS122     -0.1226
     66  CA        21.2080    5.9610   65.4040 C.3   122  HIS122      0.1752
     67  C         20.5820    4.5840   65.2470 C.2   122  HIS122      0.2596
     68  O         19.4850    4.3580   65.7650 O.2   122  HIS122     -0.2718
     69  CB        22.6320    5.8450   65.8870 C.3   122  HIS122      0.0759
     70  CG        23.5940    5.5890   64.7650 C.ar  122  HIS122      0.0818
     71  ND1       23.8750    4.3240   64.3090 N.ar  122  HIS122     -0.2268
     72  CD2       24.2490    6.4400   63.9400 C.ar  122  HIS122      0.1154
     73  CE1       24.6650    4.4060   63.2550 C.ar  122  HIS122      0.1986
     74  NE2       24.9060    5.6800   63.0070 N.ar  122  HIS122     -0.2212
     75  N         21.2810    3.6640   64.5740 N.am  123  HIS123     -0.1975
     76  CA        20.7410    2.3190   64.2800 C.3   123  HIS123      0.1656
     77  C         20.2230    1.5020   65.4730 C.2   123  HIS123      0.2291
     78  O         19.3340    0.7000   65.2940 O.2   123  HIS123     -0.2864
     79  CB        21.7550    1.4580   63.4970 C.3   123  HIS123      0.0771
     80  CG        22.3580    2.1410   62.3070 C.ar  123  HIS123      0.0820
     81  ND1       21.7610    3.2110   61.6640 N.ar  123  HIS123     -0.2267
     82  CD2       23.5240    1.9150   61.6460 C.ar  123  HIS123      0.1154
     83  CE1       22.5330    3.6170   60.6710 C.ar  123  HIS123      0.1986
     84  NE2       23.6040    2.8470   60.6330 N.ar  123  HIS123     -0.2212
     85  N         20.1270   14.2690   62.7080 N.3   165  TYR165     -0.1241
     86  CA        20.4180   13.0450   62.0110 C.3   165  TYR165      0.1605
     87  C         19.4470   12.0430   62.6380 C.2   165  TYR165      0.2264
     88  O         19.2380   12.0150   63.8370 O.2   165  TYR165     -0.2867
     89  CB        21.8670   12.6350   62.2830 C.3   165  TYR165      0.0534
     90  CG        22.1390   11.2100   61.9540 C.ar  165  TYR165     -0.0201
     91  CD1       22.8950   10.8740   60.8250 C.ar  165  TYR165     -0.0009
     92  CD2       21.5790   10.1660   62.7350 C.ar  165  TYR165     -0.0009
     93  CE1       23.1050    9.5020   60.4680 C.ar  165  TYR165      0.0417
     94  CE2       21.7670    8.8250   62.3890 C.ar  165  TYR165      0.0417
     95  CZ        22.5370    8.4990   61.2510 C.ar  165  TYR165      0.1957
     96  OH        22.7770    7.2070   60.9150 O.3   165  TYR165     -0.2866
     97  N         18.7450   15.1770   58.3090 N.3   216  TRP216     -0.1241
     98  CA        19.7360   14.2660   57.7850 C.3   216  TRP216      0.1605
     99  C         19.3520   12.7990   58.0620 C.2   216  TRP216      0.2264
    100  O         19.6790   12.2630   59.1140 O.2   216  TRP216     -0.2867
    101  CB        21.0990   14.5870   58.4210 C.3   216  TRP216      0.0550
    102  CG        22.2750   14.3970   57.5270 C.ar  216  TRP216      0.0003
    103  CD1       23.0170   15.3840   56.8890 C.ar  216  TRP216      0.0946
    104  CD2       22.9150   13.1600   57.2350 C.ar  216  TRP216      0.0152
    105  NE1       24.0930   14.7950   56.2300 N.ar  216  TRP216     -0.2442
    106  CE2       24.0490   13.4440   56.4420 C.ar  216  TRP216      0.0810
    107  CE3       22.6440   11.8400   57.5750 C.ar  216  TRP216      0.0012
    108  CZ2       24.9040   12.4600   56.0070 C.ar  216  TRP216      0.0191
    109  CZ3       23.4810   10.8650   57.1440 C.ar  216  TRP216      0.0001
    110  CH2       24.6140   11.1730   56.3650 C.ar  216  TRP216      0.0015
    111  N         19.3410    8.5840   57.4800 N.3   218  ASP218     -0.1225
    112  CA        20.3410    7.6670   57.0280 C.3   218  ASP218      0.1805
    113  C         19.7180    6.3120   56.7250 C.2   218  ASP218      0.2598
    114  O         18.6670    5.9750   57.2550 O.2   218  ASP218     -0.2718
    115  CB        21.4370    7.5400   58.0520 C.3   218  ASP218      0.1424
    116  CG        22.7490    7.1430   57.4480 C.2   218  ASP218      0.3668
    117  OD1       23.6630    6.9790   58.2480 O.co2 218  ASP218     -0.2456
    118  OD2       22.9010    6.9960   56.2050 O.co2 218  ASP218     -0.2456
    119  N         20.3600    5.5940   55.8000 N.am  219  MET219     -0.1965
    120  CA        20.0040    4.2440   55.4070 C.3   219  MET219      0.1736
    121  C         18.7010    4.0610   54.7200 C.2   219  MET219      0.2617
    122  O         18.1080    3.0180   54.8390 O.2   219  MET219     -0.2715
    123  CB        20.0660    3.3230   56.6380 C.3   219  MET219      0.0427
    124  CG        21.5080    3.1450   57.2160 C.3   219  MET219      0.0599
    125  SD        22.5410    2.2690   55.9560 S.3   219  MET219     -0.1393
    126  CE        21.7700    0.6820   55.7480 C.3   219  MET219      0.0692
    127  N         18.2720    5.0820   53.9950 N.am  220  GLY220     -0.1955
    128  CA        16.9970    5.0600   53.3020 C.3   220  GLY220      0.1869
    129  C         15.8210    5.1930   54.2420 C.2   220  GLY220      0.2309
    130  O         15.9820    5.2720   55.4640 O.2   220  GLY220     -0.2863
    131  N         19.9230   13.2100   50.9080 N.3   247  ASP247     -0.1225
    132  CA        19.5130   12.3310   49.8310 C.3   247  ASP247      0.1805
    133  C         19.4400   10.8750   50.2020 C.2   247  ASP247      0.2597
    134  O         19.6000    9.9880   49.3320 O.2   247  ASP247     -0.2718
    135  CB        20.5450   12.4710   48.6890 C.3   247  ASP247      0.1424
    136  CG        21.9840   11.9500   49.0950 C.2   247  ASP247      0.3668
    137  OD1       22.7860   11.6760   48.1950 O.co2 247  ASP247     -0.2456
    138  OD2       22.3320   11.8050   50.3060 O.co2 247  ASP247     -0.2456
    139  N         19.2730   10.6130   51.4870 N.am  248  ARG248     -0.1979
    140  CA        19.2100    9.2310   51.9430 C.3   248  ARG248      0.1597
    141  C         17.7880    8.8100   52.2860 C.2   248  ARG248      0.2287
    142  O         17.6020    8.0240   53.2070 O.2   248  ARG248     -0.2864
    143  CB        20.1480    9.0580   53.1580 C.3   248  ARG248      0.0334
    144  CG        21.5830    9.4090   52.7570 C.3   248  ARG248      0.0492
    145  CD        22.5830    8.9850   53.7660 C.3   248  ARG248      0.2205
    146  NE        23.9020    9.3490   53.3000 N.pl3 248  ARG248     -0.0865
    147  CZ        25.0540    8.8590   53.7640 C.cat 248  ARG248      0.5346
    148  NH1       26.1660    9.2980   53.2110 N.pl3 248  ARG248      0.1354
    149  NH2       25.1270    7.9640   54.7640 N.pl3 248  ARG248      0.1354
    150  N         25.0310   13.1540   49.2050 N.3   258  THR258     -0.1218
    151  CA        26.0910   12.8350   50.1610 C.3   258  THR258      0.1862
    152  C         27.0700   11.7540   49.6890 C.2   258  THR258      0.2287
    153  O         26.7680   10.9390   48.8080 O.2   258  THR258     -0.2866
    154  CB        25.4650   12.3640   51.4980 C.3   258  THR258      0.1770
    155  OG1       24.6960   11.1640   51.2560 O.3   258  THR258     -0.2211
    156  CG2       24.5610   13.5010   52.0850 C.3   258  THR258      0.0375
    157  N         30.3230    9.2810   51.5560 N.3   260  GLU260     -0.1245
    158  CA        30.9140    8.7810   52.8170 C.3   260  GLU260      0.1567
    159  C         32.2390    8.0290   52.5950 C.2   260  GLU260      0.2260
    160  O         32.2800    6.9230   51.9790 O.2   260  GLU260     -0.2867
    161  CB        29.9260    7.8340   53.4760 C.3   260  GLU260      0.0388
    162  CG        30.1310    7.6060   54.9390 C.3   260  GLU260      0.1160
    163  CD        28.9020    6.9880   55.5410 C.2   260  GLU260      0.3649
    164  OE1       29.0600    5.9200   56.1370 O.co2 260  GLU260     -0.2457
    165  OE2       27.7820    7.5670   55.4070 O.co2 260  GLU260     -0.2457
    166  N         32.8600    6.1150   49.2770 N.3   263  VAL263     -0.1231
    167  CA        31.5870    5.9440   48.6200 C.3   263  VAL263      0.1692
    168  C         30.9290    7.2040   48.0400 C.2   263  VAL263      0.2592
    169  O         30.5820    8.1380   48.7730 O.2   263  VAL263     -0.2718
    170  CB        30.6160    5.2770   49.5850 C.3   263  VAL263      0.0266
    171  CG1       29.2360    4.9900   48.8680 C.3   263  VAL263      0.0020
    172  CG2       31.2520    4.0220   50.1190 C.3   263  VAL263      0.0020
    173  N         30.7250    7.1760   46.7280 N.am  264  ASN264     -0.1974
    174  CA        30.1400    8.2530   45.9460 C.3   264  ASN264      0.1688
    175  C         30.9640    9.5010   45.9720 C.2   264  ASN264      0.2292
    176  O         30.4790   10.5700   45.6880 O.2   264  ASN264     -0.2864
    177  CB        28.6840    8.5470   46.3610 C.3   264  ASN264      0.1181
    178  CG        27.7190    7.3320   46.0490 C.2   264  ASN264      0.2629
    179  OD1       27.8360    6.6760   44.9890 O.2   264  ASN264     -0.2716
    180  ND2       26.7820    7.0430   46.9740 N.am  264  ASN264     -0.0877
    181  N         31.1320   13.3430   54.1680 N.3   277  THR277     -0.1218
    182  CA        31.2460   13.1440   55.5850 C.3   277  THR277      0.1862
    183  C         32.1900   12.0100   55.8550 C.2   277  THR277      0.2287
    184  O         32.3170   11.0530   55.0440 O.2   277  THR277     -0.2866
    185  CB        29.8930   12.8310   56.3030 C.3   277  THR277      0.1770
    186  OG1       30.1290   12.7670   57.7290 O.3   277  THR277     -0.2211
    187  CG2       29.2590   11.4830   55.7860 C.3   277  THR277      0.0375
    188  N         32.6030    6.6830   63.3870 N.3   284  PHE284     -0.1241
    189  CA        31.8710    7.9100   63.6720 C.3   284  PHE284      0.1605
    190  C         31.7490    7.9170   65.1870 C.2   284  PHE284      0.2264
    191  O         32.0930    8.8810   65.8140 O.2   284  PHE284     -0.2867
    192  CB        30.4930    7.9710   62.9690 C.3   284  PHE284      0.0534
    193  CG        30.6080    8.2110   61.5030 C.ar  284  PHE284     -0.0203
    194  CD1       30.9180    7.1500   60.6270 C.ar  284  PHE284     -0.0042
    195  CD2       30.5070    9.4760   60.9930 C.ar  284  PHE284     -0.0042
    196  CE1       31.1250    7.3680   59.2390 C.ar  284  PHE284     -0.0003
    197  CE2       30.7150    9.7230   59.6120 C.ar  284  PHE284     -0.0003
    198  CZ        31.0250    8.6540   58.7340 C.ar  284  PHE284     -0.0000
@<TRIPOS>BOND
     1   179   178    2
     2   176   175    2
     3   174   175    1
     4   174   177    1
     5   174   173    1
     6   178   177    1
     7   178   180   am
     8   173   168   am
     9   168   167    1
    10   168   169    2
    11   137   136   ar
    12   167   166    1
    13   167   170    1
    14   135   136    1
    15   135   132    1
    16   153   152    2
    17   171   170    1
    18   136   138   ar
    19   150   151    1
    20   134   133    2
    21   170   172    1
    22   152   151    1
    23   132   133    1
    24   132   131    1
    25   151   154    1
    26   133   139   am
    27   155   154    1
    28   139   140    1
    29   154   156    1
    30   157   158    1
    31   140   141    1
    32   140   143    1
    33    25    24    2
    34   160   159    2
    35   141   142    2
    36    24    23    1
    37   159   158    1
    38   144   143    1
    39   144   145    1
    40   158   161    1
    41   148   147    1
    42   146   147    2
    43   146   145    1
    44   128   127    1
    45   128   129    1
    46   161   162    1
    47    27    29    1
    48    27    28    1
    49    27    26    1
    50   147   149    1
    51    23    26    1
    52    23    22    1
    53   127   121   am
    54   181   182    1
    55   129   130    2
    56   121   122    2
    57   121   120    1
    58   162   163    1
    59   184   183    2
    60   165   163   ar
    61   120   119    1
    62   120   123    1
    63   163   164   ar
    64   182   183    1
    65   182   185    1
    66   126   125    1
    67   187   185    1
    68   119   113   am
    69   125   124    1
    70   108   110   ar
    71   108   106   ar
    72   118   116   ar
    73   105   106   ar
    74   105   103   ar
    75   185   186    1
    76   110   109   ar
    77   106   104   ar
    78   123   124    1
    79   113   112    1
    80   113   114    2
    81   103   102   ar
    82   112   111    1
    83   112   115    1
    84    41    40    1
    85   109   107   ar
    86   104   102   ar
    87   104   107   ar
    88   116   115    1
    89   116   117   ar
    90   102   101    1
    91    98    99    1
    92    98    97    1
    93    98   101    1
    94    99   100    2
    95    40    39   ar
    96    40    38   ar
    97    39    37   ar
    98   198   196   ar
    99   198   197   ar
   100    38    36   ar
   101   196   194   ar
   102    10    11   ar
   103    10     8   ar
   104    64    62   ar
   105    64    63   ar
   106   197   195   ar
   107    62    60   ar
   108    11     9   ar
   109    37    35   ar
   110     8     6   ar
   111    36    35   ar
   112    63    61   ar
   113    93    91   ar
   114    93    95   ar
   115   194   193   ar
   116    35    34    1
   117    84    83   ar
   118    84    82   ar
   119    83    81   ar
   120    60    59   ar
   121    60    58   ar
   122     9     7   ar
   123    91    90   ar
   124    96    95    1
   125   195   193   ar
   126     6     7   ar
   127     6     5    1
   128    59    57   ar
   129    95    94   ar
   130    61    58   ar
   131   193   192    1
   132    58    56   ar
   133    82    80   ar
   134    81    80   ar
   135     5     2    1
   136    90    89    1
   137    90    92   ar
   138    34    31    1
   139    86    89    1
   140    86    87    1
   141    86    85    1
   142    57    56   ar
   143    80    79    1
   144    94    92   ar
   145    20    21   ar
   146    20    18   ar
   147    21    19   ar
   148     1     2    1
   149    30    31    1
   150    56    55    1
   151    87    88    2
   152     2     3    1
   153    49    48   ar
   154    31    32    1
   155   192   189    1
   156    74    73   ar
   157    74    72   ar
   158    73    71   ar
   159   188   189    1
   160    79    76    1
   161    18    17   ar
   162    19    17   ar
   163   189   190    1
   164    55    52    1
   165    72    70   ar
   166    48    50   ar
   167    48    47    1
   168     3     4    2
   169    76    75    1
   170    76    77    1
   171    71    70   ar
   172    32    33    2
   173    17    16    1
   174    75    67   am
   175    70    69    1
   176    52    51    1
   177    52    53    1
   178    47    46    1
   179   190   191    2
   180    67    66    1
   181    67    68    2
   182    78    77    2
   183    66    69    1
   184    66    65    1
   185    51    44   am
   186    16    13    1
   187    54    53    2
   188    46    43    1
   189    44    45    2
   190    44    43    1
   191    12    13    1
   192    42    43    1
   193    13    14    1
   194    14    15    2
