@<TRIPOS>MOLECULE
tmp/2zx8B00.pdb
 199 196 0 0 0
SMALL
GASTEIGER

@<TRIPOS>ATOM
      1  N         29.5650   16.8340   62.7330 N.3    26  PHE26      -0.1241
      2  CA        28.6770   15.6960   62.9170 C.3    26  PHE26       0.1605
      3  C         29.0270   15.2040   64.3220 C.2    26  PHE26       0.2264
      4  O         30.2040   15.2340   64.7280 O.2    26  PHE26      -0.2867
      5  CB        29.0440   14.5700   61.9300 C.3    26  PHE26       0.0534
      6  CG        27.8790   13.8710   61.3090 C.ar   26  PHE26      -0.0203
      7  CD1       26.5780   14.1460   61.7010 C.ar   26  PHE26      -0.0042
      8  CD2       28.0980   12.9620   60.2610 C.ar   26  PHE26      -0.0042
      9  CE1       25.5030   13.5200   61.0490 C.ar   26  PHE26      -0.0003
     10  CE2       27.0450   12.3350   59.5920 C.ar   26  PHE26      -0.0003
     11  CZ        25.7430   12.6050   59.9790 C.ar   26  PHE26      -0.0000
     12  N         28.3370   11.7380   66.5660 N.3    28  HIS28      -0.1241
     13  CA        27.7770   10.4190   66.8280 C.3    28  HIS28       0.1621
     14  C         28.0190   10.1790   68.3260 C.2    28  HIS28       0.2264
     15  O         29.1650    9.9750   68.7580 O.2    28  HIS28      -0.2867
     16  CB        28.4650    9.3530   65.9790 C.3    28  HIS28       0.0745
     17  CG        27.9010    9.2700   64.6030 C.ar   28  HIS28       0.0817
     18  ND1       27.7660   10.3800   63.7870 N.ar   28  HIS28      -0.2268
     19  CD2       27.3460    8.2290   63.9270 C.ar   28  HIS28       0.1154
     20  CE1       27.1390   10.0260   62.6780 C.ar   28  HIS28       0.1986
     21  NE2       26.8730    8.7290   62.7370 N.ar   28  HIS28      -0.2212
     22  N         35.9320    2.8300   55.0040 N.3    44  LEU44      -0.1245
     23  CA        34.8110    2.3110   54.2000 C.3    44  LEU44       0.1561
     24  C         35.1220    2.5140   52.7070 C.2    44  LEU44       0.2260
     25  O         35.4680    3.6270   52.2700 O.2    44  LEU44      -0.2867
     26  CB        33.5020    3.0460   54.5150 C.3    44  LEU44       0.0270
     27  CG        32.2520    2.5920   53.7350 C.3    44  LEU44       0.0019
     28  CD1       31.8190    1.1780   54.1610 C.3    44  LEU44       0.0001
     29  CD2       31.1530    3.5790   53.9900 C.3    44  LEU44       0.0001
     30  N         33.3590    0.9170   62.7600 N.3    58  TYR58      -0.1241
     31  CA        32.3670    1.8830   63.2700 C.3    58  TYR58       0.1605
     32  C         31.9690    1.4370   64.6800 C.2    58  TYR58       0.2264
     33  O         31.1590    0.4830   64.8200 O.2    58  TYR58      -0.2867
     34  CB        31.1040    1.8840   62.3710 C.3    58  TYR58       0.0534
     35  CG        31.2980    2.5620   61.0030 C.ar   58  TYR58      -0.0201
     36  CD1       32.5770    3.0150   60.5930 C.ar   58  TYR58      -0.0009
     37  CD2       30.2060    2.7930   60.1580 C.ar   58  TYR58      -0.0009
     38  CE1       32.7550    3.6890   59.3980 C.ar   58  TYR58       0.0417
     39  CE2       30.3570    3.4630   58.9370 C.ar   58  TYR58       0.0417
     40  CZ        31.6390    3.9230   58.5510 C.ar   58  TYR58       0.1957
     41  OH        31.7820    4.6250   57.3840 O.3    58  TYR58      -0.2866
     42  N         30.1170    2.7770   66.7460 N.3    60  GLU60      -0.1231
     43  CA        28.6810    2.9150   66.9820 C.3    60  GLU60       0.1699
     44  C         27.8940    1.6760   66.4810 C.2    60  GLU60       0.2592
     45  O         26.6830    1.6160   66.6560 O.2    60  GLU60      -0.2718
     46  CB        28.1090    4.1980   66.3480 C.3    60  GLU60       0.0402
     47  CG        28.0200    4.2220   64.7830 C.3    60  GLU60       0.1161
     48  CD        29.3880    4.4660   64.0760 C.2    60  GLU60       0.3649
     49  OE1       29.3530    4.7260   62.8400 O.co2  60  GLU60      -0.2457
     50  OE2       30.4910    4.4020   64.7370 O.co2  60  GLU60      -0.2457
     51  N         28.5740    0.7010   65.8620 N.am   61  TRP61      -0.1976
     52  CA        27.9270   -0.5370   65.3770 C.3    61  TRP61       0.1640
     53  C         28.1550   -1.6500   66.3900 C.2    61  TRP61       0.2290
     54  O         27.8770   -2.8190   66.1320 O.2    61  TRP61      -0.2864
     55  CB        28.4640   -0.9730   64.0000 C.3    61  TRP61       0.0576
     56  CG        27.6790   -0.3290   62.8140 C.ar   61  TRP61       0.0006
     57  CD1       27.6180    1.0030   62.4900 C.ar   61  TRP61       0.0946
     58  CD2       26.8220   -1.0060   61.8710 C.ar   61  TRP61       0.0152
     59  NE1       26.7670    1.2020   61.4110 N.ar   61  TRP61      -0.2442
     60  CE2       26.2720   -0.0150   61.0100 C.ar   61  TRP61       0.0810
     61  CE3       26.4600   -2.3550   61.6740 C.ar   61  TRP61       0.0012
     62  CZ2       25.3760   -0.3310   59.9570 C.ar   61  TRP61       0.0191
     63  CZ3       25.5510   -2.6720   60.6180 C.ar   61  TRP61       0.0001
     64  CH2       25.0280   -1.6450   59.7780 C.ar   61  TRP61       0.0015
     65  N         20.4090    6.6680   66.7470 N.3   122  HIS122     -0.1226
     66  CA        21.2370    5.9180   65.7980 C.3   122  HIS122      0.1752
     67  C         20.6230    4.5450   65.6020 C.2   122  HIS122      0.2596
     68  O         19.4840    4.3510   66.0540 O.2   122  HIS122     -0.2718
     69  CB        22.6960    5.8290   66.2630 C.3   122  HIS122      0.0759
     70  CG        23.6530    5.6040   65.1180 C.ar  122  HIS122      0.0818
     71  ND1       23.9780    4.3460   64.6570 N.ar  122  HIS122     -0.2268
     72  CD2       24.2600    6.4750   64.2750 C.ar  122  HIS122      0.1154
     73  CE1       24.7420    4.4540   63.5850 C.ar  122  HIS122      0.1986
     74  NE2       24.9290    5.7350   63.3290 N.ar  122  HIS122     -0.2212
     75  N         21.3420    3.6070   64.9580 N.am  123  HIS123     -0.1975
     76  CA        20.7610    2.2940   64.6510 C.3   123  HIS123      0.1656
     77  C         20.2520    1.4990   65.8360 C.2   123  HIS123      0.2291
     78  O         19.3200    0.6970   65.6710 O.2   123  HIS123     -0.2864
     79  CB        21.7250    1.3960   63.8320 C.3   123  HIS123      0.0771
     80  CG        22.2970    2.0810   62.6300 C.ar  123  HIS123      0.0820
     81  ND1       21.6500    3.1210   61.9910 N.ar  123  HIS123     -0.2267
     82  CD2       23.4530    1.8800   61.9450 C.ar  123  HIS123      0.1154
     83  CE1       22.3810    3.5270   60.9670 C.ar  123  HIS123      0.1986
     84  NE2       23.4810    2.7970   60.9150 N.ar  123  HIS123     -0.2212
     85  N         20.2030   14.3080   62.9440 N.3   165  TYR165     -0.1241
     86  CA        20.4660   13.0500   62.2970 C.3   165  TYR165      0.1605
     87  C         19.4550   12.0970   62.9580 C.2   165  TYR165      0.2264
     88  O         19.2440   12.1210   64.1710 O.2   165  TYR165     -0.2867
     89  CB        21.8900   12.5940   62.6420 C.3   165  TYR165      0.0534
     90  CG        22.1770   11.1710   62.2910 C.ar  165  TYR165     -0.0201
     91  CD1       22.9060   10.8510   61.1160 C.ar  165  TYR165     -0.0009
     92  CD2       21.6650   10.1140   63.0830 C.ar  165  TYR165     -0.0009
     93  CE1       23.1130    9.4720   60.7270 C.ar  165  TYR165      0.0417
     94  CE2       21.8790    8.7580   62.7080 C.ar  165  TYR165      0.0417
     95  CZ        22.5980    8.4670   61.5350 C.ar  165  TYR165      0.1957
     96  OH        22.8350    7.1830   61.2050 O.3   165  TYR165     -0.2866
     97  N         18.7570   15.1640   58.5800 N.3   216  TRP216     -0.1241
     98  CA        19.7640   14.2640   58.0160 C.3   216  TRP216      0.1605
     99  C         19.3560   12.8090   58.2800 C.2   216  TRP216      0.2264
    100  O         19.6740   12.2650   59.3560 O.2   216  TRP216     -0.2867
    101  CB        21.1310   14.5270   58.6830 C.3   216  TRP216      0.0550
    102  CG        22.3410   14.3660   57.7750 C.ar  216  TRP216      0.0003
    103  CD1       23.0630   15.3770   57.1380 C.ar  216  TRP216      0.0946
    104  CD2       23.0100   13.1390   57.4610 C.ar  216  TRP216      0.0152
    105  NE1       24.1410   14.8240   56.4640 N.ar  216  TRP216     -0.2442
    106  CE2       24.1410   13.4650   56.6610 C.ar  216  TRP216      0.0810
    107  CE3       22.7670   11.7990   57.7880 C.ar  216  TRP216      0.0012
    108  CZ2       25.0270   12.5150   56.2080 C.ar  216  TRP216      0.0191
    109  CZ3       23.6600   10.8290   57.3250 C.ar  216  TRP216      0.0001
    110  CH2       24.7820   11.1950   56.5480 C.ar  216  TRP216      0.0015
    111  N         19.3560    8.6240   57.6970 N.3   218  ASP218     -0.1225
    112  CA        20.3810    7.6820   57.3010 C.3   218  ASP218      0.1805
    113  C         19.7720    6.3080   57.0720 C.2   218  ASP218      0.2597
    114  O         18.7170    5.9670   57.6240 O.2   218  ASP218     -0.2718
    115  CB        21.4750    7.6100   58.3550 C.3   218  ASP218      0.1424
    116  CG        22.7620    7.1160   57.8010 C.2   218  ASP218      0.3668
    117  OD1       23.6790    6.7920   58.5660 O.co2 218  ASP218     -0.2456
    118  OD2       22.8690    7.0390   56.5730 O.co2 218  ASP218     -0.2456
    119  N         20.4290    5.5500   56.1970 N.am  219  MET219     -0.1979
    120  CA        20.0530    4.1890   55.8440 C.3   219  MET219      0.1605
    121  C         18.7600    4.0130   55.1100 C.2   219  MET219      0.2287
    122  O         18.1890    2.9580   55.1540 O.2   219  MET219     -0.2864
    123  CB        20.0740    3.2860   57.0910 C.3   219  MET219      0.0413
    124  CG        21.5060    2.8210   57.4600 C.3   219  MET219      0.0598
    125  SD        22.3010    1.6220   56.2140 S.3   219  MET219     -0.1393
    126  CE        21.2580    0.4930   56.2080 C.3   219  MET219      0.0692
    127  N         19.9790   13.2070   51.1550 N.3   247  ASP247     -0.1225
    128  CA        19.5100   12.3250   50.0870 C.3   247  ASP247      0.1805
    129  C         19.4580   10.8630   50.4960 C.2   247  ASP247      0.2597
    130  O         19.6300    9.9480   49.6580 O.2   247  ASP247     -0.2718
    131  CB        20.4940   12.4400   48.9060 C.3   247  ASP247      0.1424
    132  CG        21.9280   11.9410   49.2720 C.2   247  ASP247      0.3668
    133  OD1       22.6940   11.7100   48.3240 O.co2 247  ASP247     -0.2456
    134  OD2       22.3220   11.7580   50.4840 O.co2 247  ASP247     -0.2456
    135  N         19.2890   10.6230   51.7900 N.am  248  ARG248     -0.1979
    136  CA        19.2290    9.2420   52.2310 C.3   248  ARG248      0.1597
    137  C         17.8330    8.7770   52.5350 C.2   248  ARG248      0.2287
    138  O         17.6570    7.8990   53.3550 O.2   248  ARG248     -0.2864
    139  CB        20.1540    9.0620   53.4290 C.3   248  ARG248      0.0334
    140  CG        21.6150    9.3380   53.0200 C.3   248  ARG248      0.0492
    141  CD        22.6450    9.0070   54.0870 C.3   248  ARG248      0.2205
    142  NE        23.9430    9.3540   53.5160 N.pl3 248  ARG248     -0.0865
    143  CZ        25.1090    8.9220   53.9550 C.cat 248  ARG248      0.5346
    144  NH1       26.2060    9.3050   53.3140 N.pl3 248  ARG248      0.1354
    145  NH2       25.1800    8.1130   55.0220 N.pl3 248  ARG248      0.1354
    146  N         25.0820   13.0100   49.4090 N.3   258  THR258     -0.1203
    147  CA        26.1250   12.6690   50.3690 C.3   258  THR258      0.1994
    148  C         27.0850   11.6270   49.8740 C.2   258  THR258      0.2618
    149  O         26.7820   10.8730   48.9420 O.2   258  THR258     -0.2717
    150  CB        25.4860   12.1410   51.6900 C.3   258  THR258      0.1784
    151  OG1       24.5930   11.0360   51.3710 O.3   258  THR258     -0.2211
    152  CG2       24.6990   13.2850   52.3990 C.3   258  THR258      0.0376
    153  N         28.2380   11.5910   50.5120 N.am  259  ALA259     -0.1965
    154  CA        29.3160   10.6490   50.2120 C.3   259  ALA259      0.1728
    155  C         29.9240   10.3750   51.5910 C.2   259  ALA259      0.2616
    156  O         29.9980   11.3000   52.4150 O.2   259  ALA259     -0.2715
    157  CB        30.3440   11.2870   49.3050 C.3   259  ALA259      0.0334
    158  N         30.3030    9.1070   51.8190 N.am  260  GLU260     -0.1977
    159  CA        30.8840    8.5960   53.0560 C.3   260  GLU260      0.1602
    160  C         32.2340    7.8590   52.8070 C.2   260  GLU260      0.2287
    161  O         32.2860    6.7990   52.1500 O.2   260  GLU260     -0.2864
    162  CB        29.8980    7.6610   53.6640 C.3   260  GLU260      0.0415
    163  CG        30.1790    7.3400   55.0910 C.3   260  GLU260      0.1163
    164  CD        28.9730    6.6950   55.7240 C.2   260  GLU260      0.3649
    165  OE1       29.1780    5.6800   56.3910 O.co2 260  GLU260     -0.2457
    166  OE2       27.8370    7.2210   55.5570 O.co2 260  GLU260     -0.2457
    167  N         33.0030    6.0440   49.5280 N.3   263  VAL263     -0.1231
    168  CA        31.7290    5.8390   48.8250 C.3   263  VAL263      0.1692
    169  C         31.0190    7.0920   48.2630 C.2   263  VAL263      0.2592
    170  O         30.6280    8.0300   49.0040 O.2   263  VAL263     -0.2718
    171  CB        30.7640    5.0030   49.7170 C.3   263  VAL263      0.0266
    172  CG1       29.5040    4.5600   48.8980 C.3   263  VAL263      0.0020
    173  CG2       31.5260    3.7650   50.2650 C.3   263  VAL263      0.0020
    174  N         30.8690    7.0690   46.9290 N.am  264  ASN264     -0.1974
    175  CA        30.2840    8.1420   46.1250 C.3   264  ASN264      0.1688
    176  C         31.1090    9.4190   46.1900 C.2   264  ASN264      0.2292
    177  O         30.6040   10.4960   45.9590 O.2   264  ASN264     -0.2864
    178  CB        28.8410    8.4540   46.5240 C.3   264  ASN264      0.1181
    179  CG        27.8450    7.3480   46.0870 C.2   264  ASN264      0.2629
    180  OD1       27.8890    6.8320   44.9400 O.2   264  ASN264     -0.2716
    181  ND2       26.9340    6.9770   47.0110 N.am  264  ASN264     -0.0877
    182  N         31.1640   13.1980   54.4090 N.3   277  THR277     -0.1218
    183  CA        31.2560   13.0050   55.8090 C.3   277  THR277      0.1862
    184  C         32.1920   11.8610   56.0760 C.2   277  THR277      0.2287
    185  O         32.3180   10.9110   55.2540 O.2   277  THR277     -0.2866
    186  CB        29.8600   12.7540   56.5110 C.3   277  THR277      0.1770
    187  OG1       30.0320   12.7940   57.9580 O.3   277  THR277     -0.2211
    188  CG2       29.2620   11.4200   56.1130 C.3   277  THR277      0.0375
    189  N         32.6620    6.5180   63.6810 N.3   284  PHE284     -0.1241
    190  CA        31.9560    7.7790   63.8900 C.3   284  PHE284      0.1605
    191  C         31.8080    7.8950   65.4010 C.2   284  PHE284      0.2264
    192  O         32.0700    8.9350   65.9670 O.2   284  PHE284     -0.2867
    193  CB        30.6070    7.8330   63.1510 C.3   284  PHE284      0.0534
    194  CG        30.7570    8.0630   61.6660 C.ar  284  PHE284     -0.0203
    195  CD1       30.9870    6.9820   60.7820 C.ar  284  PHE284     -0.0042
    196  CD2       30.6290    9.3410   61.1360 C.ar  284  PHE284     -0.0042
    197  CE1       31.0710    7.1800   59.3860 C.ar  284  PHE284     -0.0003
    198  CE2       30.7180    9.5660   59.7410 C.ar  284  PHE284     -0.0003
    199  CZ        30.9370    8.4690   58.8510 C.ar  284  PHE284     -0.0000
@<TRIPOS>BOND
     1   180   179    2
     2   177   176    2
     3   179   178    1
     4   179   181   am
     5   175   176    1
     6   175   178    1
     7   175   174    1
     8   174   169   am
     9   169   168    1
    10   169   170    2
    11   133   132   ar
    12   168   167    1
    13   168   171    1
    14   172   171    1
    15   131   132    1
    16   131   128    1
    17   149   148    2
    18   132   134   ar
    19   157   154    1
    20   146   147    1
    21   130   129    2
    22   171   173    1
    23   148   147    1
    24   148   153   am
    25   128   129    1
    26   128   127    1
    27   154   153    1
    28   154   155    1
    29   147   150    1
    30   129   135   am
    31   151   150    1
    32   155   158   am
    33   155   156    2
    34   150   152    1
    35   135   136    1
    36   158   159    1
    37   161   160    2
    38   136   137    1
    39   136   139    1
    40    25    24    2
    41   137   138    2
    42    24    23    1
    43   160   159    1
    44   140   139    1
    45   140   141    1
    46   159   162    1
    47   144   143    1
    48   142   143    2
    49   142   141    1
    50   162   163    1
    51    27    29    1
    52    27    28    1
    53    27    26    1
    54   143   145    1
    55    23    26    1
    56    23    22    1
    57   182   183    1
    58   163   164    1
    59   121   122    2
    60   121   120    1
    61   185   184    2
    62   166   164   ar
    63   164   165   ar
    64   183   184    1
    65   183   186    1
    66   120   119    1
    67   120   123    1
    68   188   186    1
    69   119   113   am
    70   126   125    1
    71   108   110   ar
    72   108   106   ar
    73   125   124    1
    74   105   106   ar
    75   105   103   ar
    76   186   187    1
    77   110   109   ar
    78   118   116   ar
    79   106   104   ar
    80   113   112    1
    81   113   114    2
    82   123   124    1
    83   103   102   ar
    84   112   111    1
    85   112   115    1
    86   109   107   ar
    87    41    40    1
    88   104   102   ar
    89   104   107   ar
    90   102   101    1
    91   116   115    1
    92   116   117   ar
    93    98    99    1
    94    98    97    1
    95    98   101    1
    96    99   100    2
    97    40    39   ar
    98    40    38   ar
    99   199   197   ar
   100   199   198   ar
   101    39    37   ar
   102   197   195   ar
   103    38    36   ar
   104    10    11   ar
   105    10     8   ar
   106   198   196   ar
   107    64    62   ar
   108    64    63   ar
   109    62    60   ar
   110    11     9   ar
   111    37    35   ar
   112     8     6   ar
   113    36    35   ar
   114    63    61   ar
   115    93    91   ar
   116    93    95   ar
   117   195   194   ar
   118    84    83   ar
   119    84    82   ar
   120    83    81   ar
   121    35    34    1
   122    60    59   ar
   123    60    58   ar
   124     9     7   ar
   125    91    90   ar
   126   196   194   ar
   127    96    95    1
   128     6     7   ar
   129     6     5    1
   130    59    57   ar
   131    95    94   ar
   132   194   193    1
   133    61    58   ar
   134    58    56   ar
   135     5     2    1
   136    82    80   ar
   137    81    80   ar
   138    90    89    1
   139    90    92   ar
   140    86    89    1
   141    86    85    1
   142    86    87    1
   143    34    31    1
   144    57    56   ar
   145    80    79    1
   146    20    21   ar
   147    20    18   ar
   148    94    92   ar
   149     1     2    1
   150    21    19   ar
   151    30    31    1
   152    56    55    1
   153    49    48   ar
   154     2     3    1
   155    87    88    2
   156   193   190    1
   157    31    32    1
   158    74    73   ar
   159    74    72   ar
   160    73    71   ar
   161   189   190    1
   162    18    17   ar
   163    79    76    1
   164   190   191    1
   165    19    17   ar
   166    55    52    1
   167    48    50   ar
   168    48    47    1
   169    72    70   ar
   170     3     4    2
   171    17    16    1
   172    76    75    1
   173    76    77    1
   174    71    70   ar
   175    32    33    2
   176    47    46    1
   177    75    67   am
   178    70    69    1
   179    52    51    1
   180    52    53    1
   181   191   192    2
   182    67    66    1
   183    67    68    2
   184    78    77    2
   185    66    69    1
   186    66    65    1
   187    51    44   am
   188    16    13    1
   189    54    53    2
   190    46    43    1
   191    44    45    2
   192    44    43    1
   193    12    13    1
   194    42    43    1
   195    13    14    1
   196    14    15    2
