@<TRIPOS>MOLECULE
tmp/2zx9B00.pdb
 234 230 0 0 0
SMALL
GASTEIGER

@<TRIPOS>ATOM
      1  N         29.3560   16.8040   62.8820 N.3    26  PHE26      -0.1241
      2  CA        28.4840   15.6200   63.0410 C.3    26  PHE26       0.1605
      3  C         28.8690   15.0800   64.4330 C.2    26  PHE26       0.2264
      4  O         30.0450   15.0690   64.7930 O.2    26  PHE26      -0.2867
      5  CB        28.9240   14.5370   62.0430 C.3    26  PHE26       0.0534
      6  CG        27.8260   13.8120   61.3540 C.ar   26  PHE26      -0.0203
      7  CD1       26.4930   13.8980   61.7790 C.ar   26  PHE26      -0.0042
      8  CD2       28.1230   13.0110   60.2630 C.ar   26  PHE26      -0.0042
      9  CE1       25.4690   13.1820   61.1100 C.ar   26  PHE26      -0.0003
     10  CE2       27.0980   12.2800   59.5780 C.ar   26  PHE26      -0.0003
     11  CZ        25.7770   12.3720   60.0090 C.ar   26  PHE26      -0.0000
     12  N         28.2930   11.6170   66.6620 N.3    28  HIS28      -0.1241
     13  CA        27.7050   10.3340   66.9500 C.3    28  HIS28       0.1621
     14  C         27.9100   10.0990   68.4330 C.2    28  HIS28       0.2264
     15  O         29.0140    9.8040   68.8900 O.2    28  HIS28      -0.2867
     16  CB        28.3300    9.2270   66.1010 C.3    28  HIS28       0.0745
     17  CG        27.8090    9.2100   64.7040 C.ar   28  HIS28       0.0817
     18  ND1       27.8260   10.3260   63.8950 N.ar   28  HIS28      -0.2268
     19  CD2       27.2340    8.2300   63.9730 C.ar   28  HIS28       0.1154
     20  CE1       27.2850   10.0350   62.7240 C.ar   28  HIS28       0.1986
     21  NE2       26.9190    8.7690   62.7440 N.ar   28  HIS28      -0.2212
     22  N         35.8000    2.8980   54.8780 N.3    44  LEU44      -0.1245
     23  CA        34.6900    2.3820   54.0750 C.3    44  LEU44       0.1561
     24  C         35.0240    2.5600   52.5920 C.2    44  LEU44       0.2260
     25  O         35.3730    3.6560   52.1350 O.2    44  LEU44      -0.2867
     26  CB        33.3700    3.1130   54.4100 C.3    44  LEU44       0.0270
     27  CG        32.1480    2.6370   53.6130 C.3    44  LEU44       0.0019
     28  CD1       31.8640    1.1780   53.9440 C.3    44  LEU44       0.0001
     29  CD2       30.9790    3.5260   53.8980 C.3    44  LEU44       0.0001
     30  N         33.6680   -5.9300   51.8170 N.3    49  MET49      -0.1245
     31  CA        32.3870   -6.1300   52.4800 C.3    49  MET49       0.1570
     32  C         32.0230   -7.5180   53.0480 C.2    49  MET49       0.2261
     33  O         31.0780   -7.6260   53.8260 O.2    49  MET49      -0.2867
     34  CB        31.2730   -5.6280   51.5680 C.3    49  MET49       0.0387
     35  CG        31.3930   -4.1150   51.2610 C.3    49  MET49       0.0595
     36  SD        31.6350   -2.9510   52.7010 S.3    49  MET49      -0.1393
     37  CE        29.9760   -3.1520   53.6400 C.3    49  MET49       0.0692
     38  N         33.8030   -6.7470   56.3960 N.3    52  TRP52      -0.1227
     39  CA        33.3930   -5.5050   57.0210 C.3    52  TRP52       0.1737
     40  C         32.5500   -5.6080   58.2790 C.2    52  TRP52       0.2595
     41  O         32.9230   -4.9810   59.2730 O.2    52  TRP52      -0.2718
     42  CB        32.6510   -4.5990   56.0280 C.3    52  TRP52       0.0564
     43  CG        32.1450   -3.2950   56.6750 C.ar   52  TRP52       0.0003
     44  CD1       30.9540   -3.1070   57.3600 C.ar   52  TRP52       0.0946
     45  CD2       32.8460   -2.0380   56.7580 C.ar   52  TRP52       0.0152
     46  NE1       30.8840   -1.8200   57.8600 N.ar   52  TRP52      -0.2442
     47  CE2       32.0250   -1.1440   57.5110 C.ar   52  TRP52       0.0810
     48  CE3       34.0800   -1.5790   56.2730 C.ar   52  TRP52       0.0012
     49  CZ2       32.4140    0.1840   57.7910 C.ar   52  TRP52       0.0191
     50  CZ3       34.4640   -0.2630   56.5520 C.ar   52  TRP52       0.0001
     51  CH2       33.6310    0.6040   57.3100 C.ar   52  TRP52       0.0015
     52  N         31.4430   -6.3760   58.2600 N.am   53  PHE53      -0.1976
     53  CA        30.5520   -6.4370   59.4190 C.3    53  PHE53       0.1639
     54  C         31.0560   -7.1870   60.5960 C.2    53  PHE53       0.2290
     55  O         30.5760   -6.9700   61.7320 O.2    53  PHE53      -0.2864
     56  CB        29.1570   -6.9480   59.0470 C.3    53  PHE53       0.0560
     57  CG        28.3650   -5.9460   58.2690 C.ar   53  PHE53      -0.0200
     58  CD1       28.2350   -6.0600   56.8820 C.ar   53  PHE53      -0.0042
     59  CD2       27.8990   -4.7740   58.9010 C.ar   53  PHE53      -0.0042
     60  CE1       27.6660   -5.0200   56.1380 C.ar   53  PHE53      -0.0003
     61  CE2       27.3280   -3.7330   58.1520 C.ar   53  PHE53      -0.0003
     62  CZ        27.2180   -3.8620   56.7850 C.ar   53  PHE53      -0.0000
     63  N         33.3280    0.8500   62.6710 N.3    58  TYR58      -0.1241
     64  CA        32.3280    1.7900   63.2290 C.3    58  TYR58       0.1605
     65  C         31.8790    1.3580   64.6180 C.2    58  TYR58       0.2264
     66  O         31.0840    0.4260   64.7480 O.2    58  TYR58      -0.2867
     67  CB        31.0860    1.8750   62.3260 C.3    58  TYR58       0.0534
     68  CG        31.2450    2.5830   60.9750 C.ar   58  TYR58      -0.0201
     69  CD1       32.5020    2.9110   60.4680 C.ar   58  TYR58      -0.0009
     70  CD2       30.1170    2.9080   60.2010 C.ar   58  TYR58      -0.0009
     71  CE1       32.6480    3.5520   59.2180 C.ar   58  TYR58       0.0417
     72  CE2       30.2360    3.5430   58.9530 C.ar   58  TYR58       0.0417
     73  CZ        31.5120    3.8650   58.4590 C.ar   58  TYR58       0.1957
     74  OH        31.6570    4.4790   57.2200 O.3    58  TYR58      -0.2866
     75  N         29.8530    2.8120   66.7090 N.3    60  GLU60      -0.1231
     76  CA        28.3640    2.9280   66.9440 C.3    60  GLU60       0.1699
     77  C         27.6880    1.5950   66.5670 C.2    60  GLU60       0.2592
     78  O         26.5560    1.3620   66.9420 O.2    60  GLU60      -0.2718
     79  CB        27.5880    3.9320   66.0590 C.3    60  GLU60       0.0402
     80  CG        28.3100    5.0160   65.3230 C.3    60  GLU60       0.1161
     81  CD        29.4190    4.5600   64.3710 C.2    60  GLU60       0.3649
     82  OE1       29.1780    4.3990   63.1440 O.co2  60  GLU60      -0.2457
     83  OE2       30.5530    4.3950   64.8840 O.co2  60  GLU60      -0.2457
     84  N         28.3690    0.7620   65.7830 N.am   61  TRP61      -0.1976
     85  CA        27.8010   -0.4890   65.3710 C.3    61  TRP61       0.1640
     86  C         28.0500   -1.5930   66.3780 C.2    61  TRP61       0.2290
     87  O         27.7750   -2.7500   66.1080 O.2    61  TRP61      -0.2864
     88  CB        28.3090   -0.8850   63.9710 C.3    61  TRP61       0.0576
     89  CG        27.4970   -0.2990   62.8150 C.ar   61  TRP61       0.0006
     90  CD1       27.4000    1.0070   62.4740 C.ar   61  TRP61       0.0946
     91  CD2       26.6650   -1.0210   61.8680 C.ar   61  TRP61       0.0152
     92  NE1       26.5770    1.1640   61.3990 N.ar   61  TRP61      -0.2442
     93  CE2       26.1080   -0.0640   60.9970 C.ar   61  TRP61       0.0810
     94  CE3       26.3410   -2.3860   61.6750 C.ar   61  TRP61       0.0012
     95  CZ2       25.2330   -0.4250   59.9290 C.ar   61  TRP61       0.0191
     96  CZ3       25.4870   -2.7330   60.6280 C.ar   61  TRP61       0.0001
     97  CH2       24.9420   -1.7600   59.7670 C.ar   61  TRP61       0.0015
     98  N         20.2450    6.5430   66.7260 N.3   122  HIS122     -0.1226
     99  CA        21.0380    5.7730   65.8020 C.3   122  HIS122      0.1752
    100  C         20.4180    4.3640   65.6330 C.2   122  HIS122      0.2596
    101  O         19.3320    4.1110   66.1820 O.2   122  HIS122     -0.2718
    102  CB        22.4720    5.7000   66.2670 C.3   122  HIS122      0.0759
    103  CG        23.4270    5.5710   65.1370 C.ar  122  HIS122      0.0818
    104  ND1       23.9270    4.3560   64.7180 N.ar  122  HIS122     -0.2268
    105  CD2       23.9660    6.5020   64.3190 C.ar  122  HIS122      0.1154
    106  CE1       24.7470    4.5470   63.7050 C.ar  122  HIS122      0.1986
    107  NE2       24.7870    5.8380   63.4420 N.ar  122  HIS122     -0.2212
    108  N         21.0860    3.4960   64.8620 N.am  123  HIS123     -0.1975
    109  CA        20.5820    2.1700   64.5600 C.3   123  HIS123      0.1656
    110  C         20.1170    1.3760   65.7450 C.2   123  HIS123      0.2291
    111  O         19.2470    0.5220   65.5650 O.2   123  HIS123     -0.2864
    112  CB        21.6020    1.3440   63.7650 C.3   123  HIS123      0.0771
    113  CG        22.1910    2.0760   62.5940 C.ar  123  HIS123      0.0820
    114  ND1       21.5120    3.0600   61.9040 N.ar  123  HIS123     -0.2267
    115  CD2       23.3800    1.9280   61.9580 C.ar  123  HIS123      0.1154
    116  CE1       22.2560    3.4800   60.8980 C.ar  123  HIS123      0.1986
    117  NE2       23.3940    2.8080   60.9050 N.ar  123  HIS123     -0.2212
    118  N         20.1310   14.2000   62.9310 N.3   165  TYR165     -0.1241
    119  CA        20.4040   12.9150   62.3320 C.3   165  TYR165      0.1605
    120  C         19.3980   11.9370   62.9470 C.2   165  TYR165      0.2264
    121  O         19.1430   11.9710   64.1250 O.2   165  TYR165     -0.2867
    122  CB        21.8420   12.4620   62.6680 C.3   165  TYR165      0.0534
    123  CG        22.1140   11.0440   62.2950 C.ar  165  TYR165     -0.0201
    124  CD1       22.8010   10.7290   61.1310 C.ar  165  TYR165     -0.0009
    125  CD2       21.6250    9.9980   63.0850 C.ar  165  TYR165     -0.0009
    126  CE1       23.0220    9.3880   60.7560 C.ar  165  TYR165      0.0417
    127  CE2       21.8090    8.6400   62.7300 C.ar  165  TYR165      0.0417
    128  CZ        22.5180    8.3550   61.5670 C.ar  165  TYR165      0.1957
    129  OH        22.7460    7.0410   61.2500 O.3   165  TYR165     -0.2866
    130  N         26.3110   -7.2180   53.3660 N.3   182  PRO182     -0.2116
    131  CA        25.5300   -6.1040   52.8040 C.3   182  PRO182      0.1372
    132  C         24.1670   -6.5760   52.2150 C.2   182  PRO182      0.2244
    133  O         23.2030   -5.8580   52.2660 O.2   182  PRO182     -0.2868
    134  CB        26.4760   -5.5180   51.7470 C.3   182  PRO182      0.0268
    135  CG        27.8250   -6.1420   52.0900 C.3   182  PRO182      0.0207
    136  CD        27.5020   -7.4950   52.5530 C.3   182  PRO182      0.0892
    137  N         20.8700   -6.3320   54.4380 N.3   185  LEU185     -0.1245
    138  CA        20.2070   -5.0480   54.5290 C.3   185  LEU185      0.1561
    139  C         18.8980   -4.9120   53.7490 C.2   185  LEU185      0.2260
    140  O         18.0270   -4.0600   54.0730 O.2   185  LEU185     -0.2867
    141  CB        21.1530   -3.9630   54.0690 C.3   185  LEU185      0.0270
    142  CG        22.2250   -3.6460   55.0810 C.3   185  LEU185      0.0019
    143  CD1       23.0990   -2.5470   54.5060 C.3   185  LEU185      0.0001
    144  CD2       21.6040   -3.2500   56.4210 C.3   185  LEU185      0.0001
    145  N         18.7200   15.2080   58.5820 N.3   216  TRP216     -0.1241
    146  CA        19.7140   14.2650   58.0830 C.3   216  TRP216      0.1605
    147  C         19.2970   12.7920   58.3550 C.2   216  TRP216      0.2264
    148  O         19.5370   12.2350   59.4110 O.2   216  TRP216     -0.2867
    149  CB        21.0450   14.5860   58.7420 C.3   216  TRP216      0.0550
    150  CG        22.2200   14.3790   57.8820 C.ar  216  TRP216      0.0003
    151  CD1       22.9400   15.3420   57.2610 C.ar  216  TRP216      0.0946
    152  CD2       22.8930   13.1530   57.6210 C.ar  216  TRP216      0.0152
    153  NE1       24.0440   14.8040   56.6340 N.ar  216  TRP216     -0.2442
    154  CE2       24.0430   13.4610   56.8410 C.ar  216  TRP216      0.0810
    155  CE3       22.6510   11.8330   57.9730 C.ar  216  TRP216      0.0012
    156  CZ2       24.9450   12.4980   56.4120 C.ar  216  TRP216      0.0191
    157  CZ3       23.5420   10.8600   57.5550 C.ar  216  TRP216      0.0001
    158  CH2       24.6860   11.2060   56.7740 C.ar  216  TRP216      0.0015
    159  N         19.2940    8.6040   57.8410 N.3   218  ASP218     -0.1225
    160  CA        20.2380    7.5960   57.4130 C.3   218  ASP218      0.1805
    161  C         19.6520    6.2070   57.0990 C.2   218  ASP218      0.2597
    162  O         18.6920    5.7670   57.7390 O.2   218  ASP218     -0.2718
    163  CB        21.3340    7.4430   58.4570 C.3   218  ASP218      0.1424
    164  CG        22.6250    7.0070   57.8570 C.2   218  ASP218      0.3668
    165  OD1       23.6410    7.0390   58.5470 O.co2 218  ASP218     -0.2456
    166  OD2       22.6500    6.6460   56.6760 O.co2 218  ASP218     -0.2456
    167  N         20.2510    5.5310   56.1040 N.am  219  MET219     -0.1979
    168  CA        19.9010    4.1570   55.6960 C.3   219  MET219      0.1605
    169  C         18.5700    3.9730   54.9730 C.2   219  MET219      0.2287
    170  O         17.9550    2.8940   55.0290 O.2   219  MET219     -0.2864
    171  CB        19.9420    3.2240   56.9060 C.3   219  MET219      0.0413
    172  CG        21.3560    2.8740   57.4080 C.3   219  MET219      0.0598
    173  SD        22.3850    1.7460   56.3270 S.3   219  MET219     -0.1393
    174  CE        21.5380    0.3140   56.3730 C.3   219  MET219      0.0692
    175  N         19.2460   10.5410   51.7500 N.3   248  ARG248     -0.1245
    176  CA        19.1740    9.1540   52.2310 C.3   248  ARG248      0.1563
    177  C         17.7610    8.7060   52.5770 C.2   248  ARG248      0.2260
    178  O         17.5590    8.0400   53.5770 O.2   248  ARG248     -0.2867
    179  CB        20.0740    9.0180   53.4400 C.3   248  ARG248      0.0307
    180  CG        21.4670    9.3810   53.0750 C.3   248  ARG248      0.0489
    181  CD        22.4570    8.8680   54.0580 C.3   248  ARG248      0.2205
    182  NE        23.7990    9.1140   53.5850 N.pl3 248  ARG248     -0.0865
    183  CZ        24.8820    8.5900   54.1450 C.cat 248  ARG248      0.5346
    184  NH1       26.0850    8.8630   53.6610 N.pl3 248  ARG248      0.1354
    185  NH2       24.7690    7.7780   55.1870 N.pl3 248  ARG248      0.1354
    186  N         25.0220   13.0550   49.5910 N.3   258  THR258     -0.1218
    187  CA        26.0720   12.7150   50.5410 C.3   258  THR258      0.1862
    188  C         27.0080   11.6110   50.0680 C.2   258  THR258      0.2287
    189  O         26.6770   10.8260   49.1950 O.2   258  THR258     -0.2866
    190  CB        25.4620   12.3120   51.8820 C.3   258  THR258      0.1770
    191  OG1       24.6400   11.1280   51.7100 O.3   258  THR258     -0.2211
    192  CG2       24.6300   13.4710   52.4090 C.3   258  THR258      0.0375
    193  N         30.2790    9.1070   51.9620 N.3   260  GLU260     -0.1245
    194  CA        30.8900    8.6260   53.2210 C.3   260  GLU260      0.1567
    195  C         32.2200    7.9230   52.9250 C.2   260  GLU260      0.2260
    196  O         32.2550    6.9120   52.1850 O.2   260  GLU260     -0.2867
    197  CB        29.9390    7.6310   53.8680 C.3   260  GLU260      0.0388
    198  CG        29.9910    7.5590   55.3280 C.3   260  GLU260      0.1160
    199  CD        28.8050    6.8060   55.7890 C.2   260  GLU260      0.3649
    200  OE1       28.9770    5.6140   56.0890 O.co2 260  GLU260     -0.2457
    201  OE2       27.6950    7.3900   55.8200 O.co2 260  GLU260     -0.2457
    202  N         32.9850    5.9390   49.4740 N.3   263  VAL263     -0.1231
    203  CA        31.6810    5.7560   48.8040 C.3   263  VAL263      0.1692
    204  C         30.9380    7.0120   48.3050 C.2   263  VAL263      0.2592
    205  O         30.4960    7.8630   49.1060 O.2   263  VAL263     -0.2718
    206  CB        30.7190    4.9320   49.7280 C.3   263  VAL263      0.0266
    207  CG1       29.5480    4.4030   48.9020 C.3   263  VAL263      0.0020
    208  CG2       31.4780    3.7540   50.3980 C.3   263  VAL263      0.0020
    209  N         30.7870    7.0950   46.9800 N.am  264  ASN264     -0.1974
    210  CA        30.1420    8.2320   46.3240 C.3   264  ASN264      0.1688
    211  C         30.9890    9.4950   46.3070 C.2   264  ASN264      0.2292
    212  O         30.4840   10.5600   45.9730 O.2   264  ASN264     -0.2864
    213  CB        28.7900    8.5950   46.9580 C.3   264  ASN264      0.1181
    214  CG        27.7610    7.5020   46.7990 C.2   264  ASN264      0.2629
    215  OD1       27.7190    6.8370   45.7520 O.2   264  ASN264     -0.2716
    216  ND2       26.9160    7.3030   47.8330 N.am  264  ASN264     -0.0877
    217  N         31.2140   13.2270   54.5130 N.3   277  THR277     -0.1218
    218  CA        31.3260   12.9640   55.9180 C.3   277  THR277      0.1862
    219  C         32.2310   11.7680   56.1330 C.2   277  THR277      0.2287
    220  O         32.3560   10.8840   55.2550 O.2   277  THR277     -0.2866
    221  CB        29.9490   12.7370   56.6150 C.3   277  THR277      0.1770
    222  OG1       30.1540   12.8690   58.0290 O.3   277  THR277     -0.2211
    223  CG2       29.3210   11.3160   56.2520 C.3   277  THR277      0.0375
    224  N         32.7340    6.4960   63.7470 N.3   284  PHE284     -0.1241
    225  CA        31.9590    7.7300   64.0170 C.3   284  PHE284      0.1605
    226  C         31.7680    7.7980   65.5320 C.2   284  PHE284      0.2264
    227  O         32.0940    8.8010   66.1810 O.2   284  PHE284     -0.2867
    228  CB        30.5870    7.7290   63.3580 C.3   284  PHE284      0.0534
    229  CG        30.6300    8.0960   61.9230 C.ar  284  PHE284     -0.0203
    230  CD1       30.9670    7.1420   60.9490 C.ar  284  PHE284     -0.0042
    231  CD2       30.4260    9.4110   61.5240 C.ar  284  PHE284     -0.0042
    232  CE1       31.1050    7.5060   59.5720 C.ar  284  PHE284     -0.0003
    233  CE2       30.5730    9.7880   60.1470 C.ar  284  PHE284     -0.0003
    234  CZ        30.9150    8.8170   59.1740 C.ar  284  PHE284     -0.0000
@<TRIPOS>BOND
     1   215   214    2
     2   212   211    2
     3   211   210    1
     4   210   213    1
     5   210   209    1
     6   214   213    1
     7   214   216   am
     8   209   204   am
     9   204   203    1
    10   204   205    2
    11   203   202    1
    12   203   206    1
    13   207   206    1
    14   189   188    2
    15   186   187    1
    16   206   208    1
    17   188   187    1
    18   187   190    1
    19    35    34    1
    20    35    36    1
    21    34    31    1
    22   191   190    1
    23   134   135    1
    24   134   131    1
    25   175   176    1
    26    30    31    1
    27   190   192    1
    28   193   194    1
    29   135   136    1
    30    25    24    2
    31   196   195    2
    32   132   133    2
    33   132   131    1
    34   176   177    1
    35   176   179    1
    36    31    32    1
    37   136   130    1
    38   177   178    2
    39    24    23    1
    40    36    37    1
    41   131   130    1
    42   195   194    1
    43    32    33    2
    44   180   179    1
    45   180   181    1
    46   194   197    1
    47   182   181    1
    48   182   183    2
    49    27    29    1
    50    27    28    1
    51    27    26    1
    52   184   183    1
    53   139   140    2
    54   139   138    1
    55   197   198    1
    56   141   138    1
    57   141   142    1
    58    23    26    1
    59    23    22    1
    60   183   185    1
    61   137   138    1
    62   143   142    1
    63   217   218    1
    64   169   170    2
    65   169   168    1
    66   142   144    1
    67   220   219    2
    68   198   199    1
    69   168   167    1
    70   168   171    1
    71   199   201   ar
    72   199   200   ar
    73   218   219    1
    74   218   221    1
    75    42    43    1
    76    42    39    1
    77   167   161   am
    78    60    62   ar
    79    60    58   ar
    80   223   221    1
    81    48    50   ar
    82    48    45   ar
    83   173   174    1
    84   173   172    1
    85    38    39    1
    86   156   158   ar
    87   156   154   ar
    88    50    51   ar
    89   221   222    1
    90   153   154   ar
    91   153   151   ar
    92    43    45   ar
    93    43    44   ar
    94   166   164   ar
    95    45    47   ar
    96   158   157   ar
    97    62    61   ar
    98   154   152   ar
    99    58    57   ar
   100   171   172    1
   101    39    40    1
   102   161   160    1
   103   161   162    2
   104    74    73    1
   105   151   150   ar
   106    51    49   ar
   107    44    46   ar
   108   160   159    1
   109   160   163    1
   110    47    49   ar
   111    47    46   ar
   112   157   155   ar
   113   152   150   ar
   114   152   155   ar
   115   164   163    1
   116   164   165   ar
   117   150   149    1
   118   146   147    1
   119   146   145    1
   120   146   149    1
   121    61    59   ar
   122    52    40   am
   123    52    53    1
   124    57    59   ar
   125    57    56    1
   126    40    41    2
   127   147   148    2
   128    73    72   ar
   129    73    71   ar
   130    72    70   ar
   131    56    53    1
   132   234   232   ar
   133   234   233   ar
   134    71    69   ar
   135    53    54    1
   136   232   230   ar
   137    10    11   ar
   138    10     8   ar
   139    97    95   ar
   140    97    96   ar
   141    95    93   ar
   142    11     9   ar
   143   233   231   ar
   144    70    68   ar
   145     8     6   ar
   146    69    68   ar
   147    54    55    2
   148    96    94   ar
   149   126   124   ar
   150   126   128   ar
   151   116   117   ar
   152   116   114   ar
   153   117   115   ar
   154   230   229   ar
   155    68    67    1
   156    93    92   ar
   157    93    91   ar
   158     9     7   ar
   159   124   123   ar
   160   129   128    1
   161     6     7   ar
   162     6     5    1
   163    92    90   ar
   164   231   229   ar
   165   128   127   ar
   166    94    91   ar
   167    91    89   ar
   168   114   113   ar
   169   229   228    1
   170   115   113   ar
   171     5     2    1
   172   123   122    1
   173   123   125   ar
   174    67    64    1
   175   119   122    1
   176   119   118    1
   177   119   120    1
   178    90    89   ar
   179   113   112    1
   180    63    64    1
   181    20    21   ar
   182    20    18   ar
   183   127   125   ar
   184    21    19   ar
   185    89    88    1
   186     1     2    1
   187   120   121    2
   188     2     3    1
   189    82    81   ar
   190    64    65    1
   191   228   225    1
   192   107   106   ar
   193   107   105   ar
   194   106   104   ar
   195   224   225    1
   196   112   109    1
   197    18    17   ar
   198    88    85    1
   199    19    17   ar
   200   225   226    1
   201   105   103   ar
   202    81    83   ar
   203    81    80    1
   204     3     4    2
   205   109   108    1
   206   109   110    1
   207    65    66    2
   208    17    16    1
   209   104   103   ar
   210   108   100   am
   211   103   102    1
   212    80    79    1
   213    85    84    1
   214    85    86    1
   215   226   227    2
   216   111   110    2
   217   100    99    1
   218   100   101    2
   219    84    77   am
   220    99   102    1
   221    99    98    1
   222    79    76    1
   223    16    13    1
   224    87    86    2
   225    77    78    2
   226    77    76    1
   227    12    13    1
   228    75    76    1
   229    13    14    1
   230    14    15    2
