@<TRIPOS>MOLECULE
tmp/2zxaB00.pdb
 171 168 0 0 0
SMALL
GASTEIGER

@<TRIPOS>ATOM
      1  N         29.5190   16.8630   62.6970 N.3    26  PHE26      -0.1241
      2  CA        28.6290   15.7220   62.8750 C.3    26  PHE26       0.1605
      3  C         29.0340   15.1950   64.2720 C.2    26  PHE26       0.2264
      4  O         30.2310   15.1550   64.6230 O.2    26  PHE26      -0.2867
      5  CB        28.9960   14.6360   61.8580 C.3    26  PHE26       0.0534
      6  CG        27.8540   13.8670   61.3190 C.ar   26  PHE26      -0.0203
      7  CD1       26.5380   14.1140   61.7400 C.ar   26  PHE26      -0.0042
      8  CD2       28.0590   13.0160   60.2220 C.ar   26  PHE26      -0.0042
      9  CE1       25.4280   13.5430   61.0510 C.ar   26  PHE26      -0.0003
     10  CE2       26.9480   12.4190   59.5060 C.ar   26  PHE26      -0.0003
     11  CZ        25.6300   12.7000   59.9310 C.ar   26  PHE26      -0.0000
     12  N         28.4100   11.7730   66.5890 N.3    28  HIS28      -0.1241
     13  CA        27.8200   10.4660   66.8500 C.3    28  HIS28       0.1621
     14  C         28.0560   10.2100   68.3250 C.2    28  HIS28       0.2264
     15  O         29.1980    9.9460   68.7670 O.2    28  HIS28      -0.2867
     16  CB        28.4740    9.3690   65.9830 C.3    28  HIS28       0.0745
     17  CG        27.9830    9.3870   64.5740 C.ar   28  HIS28       0.0817
     18  ND1       27.9500   10.5430   63.8240 N.ar   28  HIS28      -0.2268
     19  CD2       27.3690    8.4380   63.8240 C.ar   28  HIS28       0.1154
     20  CE1       27.3240   10.3130   62.6840 C.ar   28  HIS28       0.1986
     21  NE2       26.9620    9.0470   62.6570 N.ar   28  HIS28      -0.2212
     22  N         35.8330    2.8470   54.8930 N.3    44  LEU44      -0.1245
     23  CA        34.7130    2.3270   54.1080 C.3    44  LEU44       0.1561
     24  C         35.0290    2.5650   52.6060 C.2    44  LEU44       0.2260
     25  O         35.3960    3.6980   52.1500 O.2    44  LEU44      -0.2867
     26  CB        33.3910    3.0230   54.4670 C.3    44  LEU44       0.0270
     27  CG        32.2370    2.5490   53.5720 C.3    44  LEU44       0.0019
     28  CD1       31.8660    1.0900   53.9020 C.3    44  LEU44       0.0001
     29  CD2       31.1050    3.4690   53.7530 C.3    44  LEU44       0.0001
     30  N         33.3810    0.9670   62.6080 N.3    58  TYR58      -0.1241
     31  CA        32.4290    1.9380   63.0920 C.3    58  TYR58       0.1605
     32  C         31.9750    1.5350   64.4810 C.2    58  TYR58       0.2264
     33  O         31.1290    0.6330   64.6310 O.2    58  TYR58      -0.2867
     34  CB        31.2220    1.9400   62.1730 C.3    58  TYR58       0.0534
     35  CG        31.4220    2.6620   60.8500 C.ar   58  TYR58      -0.0201
     36  CD1       32.6780    3.1480   60.4540 C.ar   58  TYR58      -0.0009
     37  CD2       30.3250    2.8970   60.0290 C.ar   58  TYR58      -0.0009
     38  CE1       32.8150    3.8730   59.2490 C.ar   58  TYR58       0.0417
     39  CE2       30.4330    3.5960   58.8390 C.ar   58  TYR58       0.0417
     40  CZ        31.6580    4.0940   58.4270 C.ar   58  TYR58       0.1957
     41  OH        31.6810    4.7740   57.2330 O.3    58  TYR58      -0.2866
     42  N         29.9890    2.9270   66.5290 N.3    60  GLU60      -0.1231
     43  CA        28.5340    3.0130   66.8030 C.3    60  GLU60       0.1699
     44  C         27.8070    1.6830   66.3850 C.2    60  GLU60       0.2592
     45  O         26.6570    1.5250   66.6850 O.2    60  GLU60      -0.2718
     46  CB        27.7710    4.1280   66.0270 C.3    60  GLU60       0.0402
     47  CG        28.5440    5.1580   65.3240 C.3    60  GLU60       0.1161
     48  CD        29.5660    4.6550   64.2400 C.2    60  GLU60       0.3649
     49  OE1       29.1580    4.4010   63.0690 O.co2  60  GLU60      -0.2457
     50  OE2       30.7970    4.5820   64.5950 O.co2  60  GLU60      -0.2457
     51  N         28.4820    0.7890   65.6710 N.am   61  TRP61      -0.1976
     52  CA        27.9140   -0.4610   65.2280 C.3    61  TRP61       0.1640
     53  C         28.1620   -1.5770   66.2360 C.2    61  TRP61       0.2290
     54  O         27.9020   -2.7710   65.9790 O.2    61  TRP61      -0.2864
     55  CB        28.4760   -0.8550   63.8490 C.3    61  TRP61       0.0576
     56  CG        27.7190   -0.1800   62.6580 C.ar   61  TRP61       0.0006
     57  CD1       27.6570    1.1670   62.3690 C.ar   61  TRP61       0.0946
     58  CD2       26.8440   -0.8310   61.7030 C.ar   61  TRP61       0.0152
     59  NE1       26.7970    1.3860   61.3330 N.ar   61  TRP61      -0.2442
     60  CE2       26.2790    0.1890   60.8980 C.ar   61  TRP61       0.0810
     61  CE3       26.4830   -2.1660   61.4620 C.ar   61  TRP61       0.0012
     62  CZ2       25.3540   -0.0890   59.8560 C.ar   61  TRP61       0.0191
     63  CZ3       25.5800   -2.4310   60.4370 C.ar   61  TRP61       0.0001
     64  CH2       25.0220   -1.3950   59.6440 C.ar   61  TRP61       0.0015
     65  N         20.4150    6.6080   66.6680 N.3   122  HIS122     -0.1226
     66  CA        21.2310    5.8660   65.7400 C.3   122  HIS122      0.1752
     67  C         20.6010    4.5000   65.5120 C.2   122  HIS122      0.2596
     68  O         19.4760    4.2560   66.0020 O.2   122  HIS122     -0.2718
     69  CB        22.6360    5.7470   66.2390 C.3   122  HIS122      0.0759
     70  CG        23.6140    5.6060   65.1110 C.ar  122  HIS122      0.0818
     71  ND1       23.8980    4.3920   64.5260 N.ar  122  HIS122     -0.2268
     72  CD2       24.2320    6.5430   64.3490 C.ar  122  HIS122      0.1154
     73  CE1       24.6360    4.5880   63.4490 C.ar  122  HIS122      0.1986
     74  NE2       24.8470    5.8820   63.3140 N.ar  122  HIS122     -0.2212
     75  N         21.2790    3.6350   64.7500 N.am  123  HIS123     -0.1975
     76  CA        20.7340    2.3030   64.4650 C.3   123  HIS123      0.1656
     77  C         20.2500    1.4940   65.6770 C.2   123  HIS123      0.2291
     78  O         19.3680    0.6890   65.5150 O.2   123  HIS123     -0.2864
     79  CB        21.7250    1.4380   63.6980 C.3   123  HIS123      0.0771
     80  CG        22.3760    2.1440   62.5610 C.ar  123  HIS123      0.0820
     81  ND1       21.7440    3.1450   61.8430 N.ar  123  HIS123     -0.2267
     82  CD2       23.6130    2.0110   62.0180 C.ar  123  HIS123      0.1154
     83  CE1       22.5680    3.6020   60.9130 C.ar  123  HIS123      0.1986
     84  NE2       23.7080    2.9290   60.9950 N.ar  123  HIS123     -0.2212
     85  N         20.2070   14.2830   62.9000 N.3   165  TYR165     -0.1241
     86  CA        20.4640   13.0530   62.2130 C.3   165  TYR165      0.1605
     87  C         19.4880   12.0420   62.8000 C.2   165  TYR165      0.2264
     88  O         19.2560   12.0170   64.0080 O.2   165  TYR165     -0.2867
     89  CB        21.9100   12.6220   62.4970 C.3   165  TYR165      0.0534
     90  CG        22.1530   11.2150   62.1830 C.ar  165  TYR165     -0.0201
     91  CD1       22.9330   10.8730   61.0840 C.ar  165  TYR165     -0.0009
     92  CD2       21.5670   10.1940   62.9570 C.ar  165  TYR165     -0.0009
     93  CE1       23.1580    9.4890   60.7350 C.ar  165  TYR165      0.0417
     94  CE2       21.7570    8.8620   62.6520 C.ar  165  TYR165      0.0417
     95  CZ        22.5620    8.5030   61.5410 C.ar  165  TYR165      0.1957
     96  OH        22.7920    7.1940   61.2450 O.3   165  TYR165     -0.2866
     97  N         18.7610   15.1160   58.4550 N.3   216  TRP216     -0.1241
     98  CA        19.7760   14.1750   57.9600 C.3   216  TRP216      0.1605
     99  C         19.3930   12.7080   58.2230 C.2   216  TRP216      0.2264
    100  O         19.6920   12.1500   59.2700 O.2   216  TRP216     -0.2867
    101  CB        21.1230   14.4650   58.6290 C.3   216  TRP216      0.0550
    102  CG        22.3070   14.3120   57.7200 C.ar  216  TRP216      0.0003
    103  CD1       23.0170   15.3310   57.0800 C.ar  216  TRP216      0.0946
    104  CD2       22.9950   13.1000   57.4200 C.ar  216  TRP216      0.0152
    105  NE1       24.0980   14.7940   56.4220 N.ar  216  TRP216     -0.2442
    106  CE2       24.1070   13.4360   56.6140 C.ar  216  TRP216      0.0810
    107  CE3       22.7870   11.7680   57.7600 C.ar  216  TRP216      0.0012
    108  CZ2       25.0090   12.4710   56.1490 C.ar  216  TRP216      0.0191
    109  CZ3       23.6640   10.8110   57.3180 C.ar  216  TRP216      0.0001
    110  CH2       24.7790   11.1620   56.5120 C.ar  216  TRP216      0.0015
    111  N         19.4580    8.5710   57.6970 N.3   218  ASP218     -0.1225
    112  CA        20.4200    7.6340   57.2740 C.3   218  ASP218      0.1805
    113  C         19.7620    6.2900   56.9830 C.2   218  ASP218      0.2597
    114  O         18.7260    5.9480   57.5460 O.2   218  ASP218     -0.2718
    115  CB        21.4870    7.4750   58.3110 C.3   218  ASP218      0.1424
    116  CG        22.8110    7.0680   57.7280 C.2   218  ASP218      0.3668
    117  OD1       23.7100    6.8570   58.5380 O.co2 218  ASP218     -0.2456
    118  OD2       22.9890    6.9560   56.4930 O.co2 218  ASP218     -0.2456
    119  N         20.3660    5.5730   56.0450 N.am  219  MET219     -0.1979
    120  CA        19.9950    4.2350   55.6500 C.3   219  MET219      0.1605
    121  C         18.6790    4.0480   54.9640 C.2   219  MET219      0.2287
    122  O         18.0960    3.0130   55.0540 O.2   219  MET219     -0.2864
    123  CB        20.1410    3.3040   56.8550 C.3   219  MET219      0.0413
    124  CG        21.5860    3.2940   57.4080 C.3   219  MET219      0.0598
    125  SD        22.7570    2.3740   56.2980 S.3   219  MET219     -0.1393
    126  CE        21.9510    0.7450   56.0150 C.3   219  MET219      0.0692
    127  N         19.4010   10.5410   51.6070 N.3   248  ARG248     -0.1245
    128  CA        19.3790    9.1630   52.0490 C.3   248  ARG248      0.1563
    129  C         18.0030    8.6850   52.4750 C.2   248  ARG248      0.2260
    130  O         17.8930    7.8790   53.3610 O.2   248  ARG248     -0.2867
    131  CB        20.3830    9.0170   53.2080 C.3   248  ARG248      0.0307
    132  CG        21.8090    9.4150   52.8450 C.3   248  ARG248      0.0489
    133  CD        22.7260    8.9170   53.9250 C.3   248  ARG248      0.2205
    134  NE        24.1040    9.2110   53.5830 N.pl3 248  ARG248     -0.0865
    135  CZ        25.1820    8.6210   54.1070 C.cat 248  ARG248      0.5346
    136  NH1       26.3800    8.9870   53.6840 N.pl3 248  ARG248      0.1354
    137  NH2       25.0880    7.6970   55.0430 N.pl3 248  ARG248      0.1354
    138  N         30.4660    9.2650   51.7800 N.3   260  GLU260     -0.1245
    139  CA        31.0250    8.7830   53.0330 C.3   260  GLU260      0.1567
    140  C         32.3310    8.0150   52.7770 C.2   260  GLU260      0.2260
    141  O         32.3150    6.9640   52.1230 O.2   260  GLU260     -0.2867
    142  CB        29.9930    7.8690   53.6820 C.3   260  GLU260      0.0388
    143  CG        30.3080    7.3940   55.0620 C.3   260  GLU260      0.1160
    144  CD        29.0790    6.8870   55.7270 C.2   260  GLU260      0.3649
    145  OE1       29.2060    5.8980   56.5020 O.co2 260  GLU260     -0.2457
    146  OE2       27.9840    7.4840   55.5060 O.co2 260  GLU260     -0.2457
    147  N         33.0520    6.0270   49.5100 N.3   263  VAL263     -0.1245
    148  CA        31.7520    5.9040   48.8700 C.3   263  VAL263      0.1561
    149  C         31.0780    7.1510   48.2540 C.2   263  VAL263      0.2260
    150  O         30.7010    8.1220   48.9650 O.2   263  VAL263     -0.2867
    151  CB        30.7540    5.2490   49.8630 C.3   263  VAL263      0.0252
    152  CG1       29.3070    5.1710   49.2160 C.3   263  VAL263      0.0019
    153  CG2       31.2860    3.8740   50.2750 C.3   263  VAL263      0.0019
    154  N         31.2170   13.3350   54.3560 N.3   277  THR277     -0.1218
    155  CA        31.3630   13.1010   55.7430 C.3   277  THR277      0.1862
    156  C         32.2870   11.9360   55.9960 C.2   277  THR277      0.2287
    157  O         32.4310   11.0320   55.1500 O.2   277  THR277     -0.2866
    158  CB        29.9860   12.8720   56.4420 C.3   277  THR277      0.1770
    159  OG1       30.2180   12.8180   57.8630 O.3   277  THR277     -0.2211
    160  CG2       29.2980   11.5660   55.9470 C.3   277  THR277      0.0375
    161  N         32.6650    6.5260   63.5750 N.3   284  PHE284     -0.1241
    162  CA        31.8980    7.7850   63.7690 C.3   284  PHE284      0.1605
    163  C         31.7720    7.8910   65.2730 C.2   284  PHE284      0.2264
    164  O         32.0430    8.9320   65.8300 O.2   284  PHE284     -0.2867
    165  CB        30.5060    7.7970   63.0700 C.3   284  PHE284      0.0534
    166  CG        30.6100    8.1410   61.6500 C.ar  284  PHE284     -0.0203
    167  CD1       30.9350    7.1650   60.7040 C.ar  284  PHE284     -0.0042
    168  CD2       30.5120    9.4460   61.2380 C.ar  284  PHE284     -0.0042
    169  CE1       31.1660    7.4970   59.3400 C.ar  284  PHE284     -0.0003
    170  CE2       30.7430    9.8050   59.8720 C.ar  284  PHE284     -0.0003
    171  CZ        31.0720    8.8210   58.9230 C.ar  284  PHE284     -0.0000
@<TRIPOS>BOND
     1   149   148    1
     2   149   150    2
     3   148   147    1
     4   148   151    1
     5   152   151    1
     6   151   153    1
     7   127   128    1
     8   138   139    1
     9   128   129    1
    10   128   131    1
    11   141   140    2
    12    25    24    2
    13   129   130    2
    14    24    23    1
    15   140   139    1
    16   132   131    1
    17   132   133    1
    18   139   142    1
    19    27    29    1
    20    27    28    1
    21    27    26    1
    22   134   133    1
    23   134   135    2
    24   142   143    1
    25   136   135    1
    26   135   137    1
    27    23    26    1
    28    23    22    1
    29   154   155    1
    30   121   122    2
    31   121   120    1
    32   143   144    1
    33   157   156    2
    34   146   144   ar
    35   120   119    1
    36   120   123    1
    37   144   145   ar
    38   155   156    1
    39   155   158    1
    40   160   158    1
    41   126   125    1
    42   119   113   am
    43   108   110   ar
    44   108   106   ar
    45   125   124    1
    46   105   106   ar
    47   105   103   ar
    48   158   159    1
    49   118   116   ar
    50   110   109   ar
    51   106   104   ar
    52   123   124    1
    53   113   112    1
    54   113   114    2
    55   103   102   ar
    56    41    40    1
    57   112   111    1
    58   112   115    1
    59   109   107   ar
    60   104   102   ar
    61   104   107   ar
    62   102   101    1
    63   116   115    1
    64   116   117   ar
    65    98    99    1
    66    98    97    1
    67    98   101    1
    68    99   100    2
    69    40    39   ar
    70    40    38   ar
    71    39    37   ar
    72   171   169   ar
    73   171   170   ar
    74    38    36   ar
    75   169   167   ar
    76    10    11   ar
    77    10     8   ar
    78    64    62   ar
    79    64    63   ar
    80    62    60   ar
    81   170   168   ar
    82    11     9   ar
    83    37    35   ar
    84     8     6   ar
    85    63    61   ar
    86    36    35   ar
    87   167   166   ar
    88    93    91   ar
    89    93    95   ar
    90    35    34    1
    91    60    59   ar
    92    60    58   ar
    93    83    84   ar
    94    83    81   ar
    95    84    82   ar
    96     9     7   ar
    97    91    90   ar
    98   168   166   ar
    99    96    95    1
   100     6     7   ar
   101     6     5    1
   102    59    57   ar
   103    61    58   ar
   104    95    94   ar
   105   166   165    1
   106    58    56   ar
   107    81    80   ar
   108     5     2    1
   109    82    80   ar
   110    34    31    1
   111    90    89    1
   112    90    92   ar
   113    86    89    1
   114    86    87    1
   115    86    85    1
   116    57    56   ar
   117    80    79    1
   118    30    31    1
   119    94    92   ar
   120    21    20   ar
   121    21    19   ar
   122    56    55    1
   123    20    18   ar
   124     1     2    1
   125    87    88    2
   126     2     3    1
   127    49    48   ar
   128   165   162    1
   129    31    32    1
   130    74    73   ar
   131    74    72   ar
   132    73    71   ar
   133   161   162    1
   134    79    76    1
   135   162   163    1
   136    19    17   ar
   137    18    17   ar
   138    55    52    1
   139    48    50   ar
   140    48    47    1
   141     3     4    2
   142    72    70   ar
   143    76    75    1
   144    76    77    1
   145    32    33    2
   146    71    70   ar
   147    17    16    1
   148    75    67   am
   149    70    69    1
   150    52    51    1
   151    52    53    1
   152   163   164    2
   153    47    46    1
   154    67    66    1
   155    67    68    2
   156    78    77    2
   157    51    44   am
   158    66    69    1
   159    66    65    1
   160    54    53    2
   161    16    13    1
   162    46    43    1
   163    44    45    2
   164    44    43    1
   165    42    43    1
   166    12    13    1
   167    13    14    1
   168    14    15    2
