@<TRIPOS>MOLECULE
tmp/2zxbB00.pdb
 205 203 0 0 0
SMALL
GASTEIGER

@<TRIPOS>ATOM
      1  N         29.5640   16.7520   62.4930 N.3    26  PHE26      -0.1241
      2  CA        28.6920   15.6050   62.7090 C.3    26  PHE26       0.1605
      3  C         29.1080   15.1100   64.0910 C.2    26  PHE26       0.2264
      4  O         30.2970   15.1760   64.4480 O.2    26  PHE26      -0.2867
      5  CB        29.0180   14.4710   61.7470 C.3    26  PHE26       0.0534
      6  CG        27.8260   13.8370   61.1320 C.ar   26  PHE26      -0.0203
      7  CD1       26.5570   14.0580   61.6510 C.ar   26  PHE26      -0.0042
      8  CD2       27.9610   13.0720   59.9800 C.ar   26  PHE26      -0.0042
      9  CE1       25.4120   13.5370   61.0370 C.ar   26  PHE26      -0.0003
     10  CE2       26.8120   12.5250   59.3310 C.ar   26  PHE26      -0.0003
     11  CZ        25.5270   12.7680   59.8730 C.ar   26  PHE26      -0.0000
     12  N         28.4770   11.6460   66.4040 N.3    28  HIS28      -0.1241
     13  CA        27.8930   10.3520   66.6880 C.3    28  HIS28       0.1621
     14  C         28.0930   10.1610   68.1660 C.2    28  HIS28       0.2264
     15  O         29.2070    9.9910   68.6260 O.2    28  HIS28      -0.2867
     16  CB        28.5990    9.2790   65.8520 C.3    28  HIS28       0.0745
     17  CG        28.1260    9.2880   64.4360 C.ar   28  HIS28       0.0817
     18  ND1       27.8630   10.4700   63.7660 N.ar   28  HIS28      -0.2268
     19  CD2       27.6900    8.2920   63.6280 C.ar   28  HIS28       0.1154
     20  CE1       27.2760   10.2010   62.6160 C.ar   28  HIS28       0.1986
     21  NE2       27.1580    8.8890   62.5080 N.ar   28  HIS28      -0.2212
     22  N         35.8720    2.6570   54.6140 N.3    44  LEU44      -0.1245
     23  CA        34.7630    2.1610   53.8070 C.3    44  LEU44       0.1561
     24  C         35.1310    2.4210   52.3490 C.2    44  LEU44       0.2260
     25  O         35.4550    3.5460   51.9680 O.2    44  LEU44      -0.2867
     26  CB        33.4490    2.8610   54.1740 C.3    44  LEU44       0.0270
     27  CG        32.2490    2.4080   53.3470 C.3    44  LEU44       0.0019
     28  CD1       31.8910    0.9780   53.7020 C.3    44  LEU44       0.0001
     29  CD2       31.0990    3.3660   53.5720 C.3    44  LEU44       0.0001
     30  N         33.7340   -6.1000   51.8910 N.3    49  MET49      -0.1245
     31  CA        32.4480   -6.2370   52.5630 C.3    49  MET49       0.1570
     32  C         32.0950   -7.6680   53.0310 C.2    49  MET49       0.2261
     33  O         31.1600   -7.8740   53.8220 O.2    49  MET49      -0.2867
     34  CB        31.3800   -5.6640   51.6360 C.3    49  MET49       0.0387
     35  CG        31.7140   -4.2490   51.1040 C.3    49  MET49       0.0595
     36  SD        31.9000   -2.8800   52.3510 S.3    49  MET49      -0.1393
     37  CE        30.3640   -3.0990   53.4600 C.3    49  MET49       0.0692
     38  N         33.9040   -7.1240   56.3950 N.3    52  TRP52      -0.1227
     39  CA        33.4930   -5.8510   56.9990 C.3    52  TRP52       0.1737
     40  C         32.6420   -5.9280   58.2610 C.2    52  TRP52       0.2595
     41  O         33.0900   -5.4710   59.3070 O.2    52  TRP52      -0.2718
     42  CB        32.7950   -4.9740   55.9360 C.3    52  TRP52       0.0564
     43  CG        32.3260   -3.6540   56.4360 C.ar   52  TRP52       0.0003
     44  CD1       31.0730   -3.3450   56.9130 C.ar   52  TRP52       0.0946
     45  CD2       33.1270   -2.4780   56.6370 C.ar   52  TRP52       0.0152
     46  NE1       31.0520   -2.0530   57.4070 N.ar   52  TRP52      -0.2442
     47  CE2       32.3010   -1.5030   57.2480 C.ar   52  TRP52       0.0810
     48  CE3       34.4700   -2.1540   56.3680 C.ar   52  TRP52       0.0012
     49  CZ2       32.7840   -0.2170   57.5920 C.ar   52  TRP52       0.0191
     50  CZ3       34.9420   -0.8850   56.7100 C.ar   52  TRP52       0.0001
     51  CH2       34.0990    0.0660   57.3150 C.ar   52  TRP52       0.0015
     52  N         31.4320   -6.4920   58.1960 N.am   53  PHE53      -0.1976
     53  CA        30.6140   -6.5500   59.4150 C.3    53  PHE53       0.1639
     54  C         31.1440   -7.4500   60.5430 C.2    53  PHE53       0.2290
     55  O         30.6220   -7.3630   61.6650 O.2    53  PHE53      -0.2864
     56  CB        29.1700   -6.9380   59.0990 C.3    53  PHE53       0.0560
     57  CG        28.4880   -5.9790   58.2160 C.ar   53  PHE53      -0.0200
     58  CD1       28.4890   -6.1670   56.8470 C.ar   53  PHE53      -0.0042
     59  CD2       27.9460   -4.8100   58.7420 C.ar   53  PHE53      -0.0042
     60  CE1       27.9670   -5.1850   55.9940 C.ar   53  PHE53      -0.0003
     61  CE2       27.4160   -3.8170   57.9090 C.ar   53  PHE53      -0.0003
     62  CZ        27.4300   -4.0040   56.5380 C.ar   53  PHE53      -0.0000
     63  N         33.4990    0.6830   62.6270 N.3    58  TYR58      -0.1241
     64  CA        32.5880    1.7470   63.0560 C.3    58  TYR58       0.1605
     65  C         32.1190    1.3540   64.4340 C.2    58  TYR58       0.2264
     66  O         31.3330    0.4100   64.5610 O.2    58  TYR58      -0.2867
     67  CB        31.3560    1.8020   62.1310 C.3    58  TYR58       0.0534
     68  CG        31.5470    2.5420   60.8140 C.ar   58  TYR58      -0.0201
     69  CD1       32.8230    2.9670   60.3850 C.ar   58  TYR58      -0.0009
     70  CD2       30.4500    2.8230   59.9930 C.ar   58  TYR58      -0.0009
     71  CE1       32.9970    3.6590   59.1700 C.ar   58  TYR58       0.0417
     72  CE2       30.6050    3.5130   58.7730 C.ar   58  TYR58       0.0417
     73  CZ        31.8900    3.9360   58.3670 C.ar   58  TYR58       0.1957
     74  OH        32.0360    4.6430   57.1800 O.3    58  TYR58      -0.2866
     75  N         29.9880    2.8180   66.4440 N.3    60  GLU60      -0.1231
     76  CA        28.5260    2.9160   66.7010 C.3    60  GLU60       0.1699
     77  C         27.8270    1.6000   66.3230 C.2    60  GLU60       0.2592
     78  O         26.7030    1.4110   66.7080 O.2    60  GLU60      -0.2718
     79  CB        27.7620    3.9820   65.9060 C.3    60  GLU60       0.0402
     80  CG        28.5590    5.0290   65.1950 C.3    60  GLU60       0.1161
     81  CD        29.4710    4.4960   64.1080 C.2    60  GLU60       0.3649
     82  OE1       28.9980    4.2600   62.9680 O.co2  60  GLU60      -0.2457
     83  OE2       30.6760    4.3310   64.4370 O.co2  60  GLU60      -0.2457
     84  N         28.4780    0.7080   65.5760 N.am   61  TRP61      -0.1976
     85  CA        27.8580   -0.5660   65.2000 C.3    61  TRP61       0.1640
     86  C         28.0930   -1.6600   66.2280 C.2    61  TRP61       0.2290
     87  O         27.9040   -2.8400   65.9090 O.2    61  TRP61      -0.2864
     88  CB        28.3710   -1.0910   63.8190 C.3    61  TRP61       0.0576
     89  CG        27.6410   -0.4890   62.5900 C.ar   61  TRP61       0.0006
     90  CD1       27.6200    0.8190   62.2340 C.ar   61  TRP61       0.0946
     91  CD2       26.7850   -1.1680   61.6600 C.ar   61  TRP61       0.0152
     92  NE1       26.8120    1.0120   61.1680 N.ar   61  TRP61      -0.2442
     93  CE2       26.2790   -0.1900   60.7800 C.ar   61  TRP61       0.0810
     94  CE3       26.3980   -2.4980   61.4850 C.ar   61  TRP61       0.0012
     95  CZ2       25.3940   -0.4950   59.7220 C.ar   61  TRP61       0.0191
     96  CZ3       25.5240   -2.8080   60.4380 C.ar   61  TRP61       0.0001
     97  CH2       25.0280   -1.7990   59.5640 C.ar   61  TRP61       0.0015
     98  N         20.4490    6.4710   66.4700 N.3   122  HIS122     -0.1226
     99  CA        21.2510    5.7310   65.5420 C.3   122  HIS122      0.1752
    100  C         20.6380    4.3820   65.3790 C.2   122  HIS122      0.2596
    101  O         19.5580    4.1660   65.9270 O.2   122  HIS122     -0.2718
    102  CB        22.6600    5.6540   66.0500 C.3   122  HIS122      0.0759
    103  CG        23.6440    5.4850   64.9460 C.ar  122  HIS122      0.0818
    104  ND1       23.8030    4.2910   64.2720 N.ar  122  HIS122     -0.2268
    105  CD2       24.4010    6.3880   64.2930 C.ar  122  HIS122      0.1154
    106  CE1       24.6130    4.4720   63.2520 C.ar  122  HIS122      0.1986
    107  NE2       24.9870    5.7350   63.2380 N.ar  122  HIS122     -0.2212
    108  N         21.2770    3.4830   64.6230 N.am  123  HIS123     -0.1975
    109  CA        20.7030    2.1490   64.4230 C.3   123  HIS123      0.1656
    110  C         20.2530    1.3880   65.6480 C.2   123  HIS123      0.2291
    111  O         19.3350    0.6060   65.4930 O.2   123  HIS123     -0.2864
    112  CB        21.6380    1.2680   63.6150 C.3   123  HIS123      0.0771
    113  CG        22.2970    2.0140   62.4990 C.ar  123  HIS123      0.0820
    114  ND1       21.6470    3.0190   61.8030 N.ar  123  HIS123     -0.2267
    115  CD2       23.5310    1.9020   61.9470 C.ar  123  HIS123      0.1154
    116  CE1       22.4490    3.4920   60.8710 C.ar  123  HIS123      0.1986
    117  NE2       23.5970    2.8310   60.9360 N.ar  123  HIS123     -0.2212
    118  N         20.3580   14.1140   62.7990 N.3   165  TYR165     -0.1241
    119  CA        20.6140   12.8890   62.1050 C.3   165  TYR165      0.1605
    120  C         19.6020   11.9350   62.6880 C.2   165  TYR165      0.2264
    121  O         19.3570   11.9180   63.8860 O.2   165  TYR165     -0.2867
    122  CB        22.0000   12.3950   62.4310 C.3   165  TYR165      0.0534
    123  CG        22.2140   10.9520   62.0930 C.ar  165  TYR165     -0.0201
    124  CD1       22.8840   10.5800   60.9210 C.ar  165  TYR165     -0.0009
    125  CD2       21.6900    9.9520   62.9210 C.ar  165  TYR165     -0.0009
    126  CE1       23.0310    9.2030   60.5620 C.ar  165  TYR165      0.0417
    127  CE2       21.8230    8.5620   62.5940 C.ar  165  TYR165      0.0417
    128  CZ        22.4960    8.1970   61.4130 C.ar  165  TYR165      0.1957
    129  OH        22.6430    6.8750   61.1210 O.3   165  TYR165     -0.2866
    130  N         21.0440   -6.3990   54.4300 N.3   185  LEU185     -0.1245
    131  CA        20.3720   -5.1220   54.5220 C.3   185  LEU185      0.1561
    132  C         19.0730   -5.0560   53.6950 C.2   185  LEU185      0.2260
    133  O         18.1940   -4.1480   53.8870 O.2   185  LEU185     -0.2867
    134  CB        21.3260   -4.0160   54.0920 C.3   185  LEU185      0.0270
    135  CG        22.4380   -3.8030   55.0930 C.3   185  LEU185      0.0019
    136  CD1       23.5470   -2.8540   54.6190 C.3   185  LEU185      0.0001
    137  CD2       21.7750   -3.2310   56.3230 C.3   185  LEU185      0.0001
    138  N         18.8400   15.0920   58.4600 N.3   216  TRP216     -0.1241
    139  CA        19.8000   14.1350   57.8950 C.3   216  TRP216      0.1605
    140  C         19.4070   12.6720   58.1480 C.2   216  TRP216      0.2264
    141  O         19.7290   12.1050   59.1860 O.2   216  TRP216     -0.2867
    142  CB        21.1690   14.4060   58.4980 C.3   216  TRP216      0.0550
    143  CG        22.3130   14.2700   57.5930 C.ar  216  TRP216      0.0003
    144  CD1       23.0200   15.2750   57.0410 C.ar  216  TRP216      0.0946
    145  CD2       23.0090   13.0570   57.2610 C.ar  216  TRP216      0.0152
    146  NE1       24.1420   14.7740   56.3860 N.ar  216  TRP216     -0.2442
    147  CE2       24.1610   13.4210   56.5150 C.ar  216  TRP216      0.0810
    148  CE3       22.7760   11.6970   57.5320 C.ar  216  TRP216      0.0012
    149  CZ2       25.0750   12.5060   56.0520 C.ar  216  TRP216      0.0191
    150  CZ3       23.7010   10.7570   57.0570 C.ar  216  TRP216      0.0001
    151  CH2       24.8470   11.1790   56.3240 C.ar  216  TRP216      0.0015
    152  N         19.2440    8.4720   57.4410 N.3   218  ASP218     -0.1225
    153  CA        20.2260    7.4990   57.0260 C.3   218  ASP218      0.1805
    154  C         19.6600    6.1210   56.7880 C.2   218  ASP218      0.2597
    155  O         18.6700    5.7150   57.4010 O.2   218  ASP218     -0.2718
    156  CB        21.2700    7.3870   58.0830 C.3   218  ASP218      0.1424
    157  CG        22.5130    6.7880   57.5960 C.2   218  ASP218      0.3668
    158  OD1       23.3410    6.5380   58.4660 O.co2 218  ASP218     -0.2456
    159  OD2       22.6980    6.5860   56.3650 O.co2 218  ASP218     -0.2456
    160  N         20.3130    5.3870   55.8990 N.am  219  MET219     -0.1979
    161  CA        19.9660    3.9880   55.5950 C.3   219  MET219      0.1605
    162  C         18.6310    3.8240   54.8850 C.2   219  MET219      0.2287
    163  O         18.0060    2.7490   54.9150 O.2   219  MET219     -0.2864
    164  CB        20.0440    3.1920   56.8890 C.3   219  MET219      0.0413
    165  CG        21.4870    3.0720   57.3660 C.3   219  MET219      0.0598
    166  SD        22.5910    1.9930   56.2870 S.3   219  MET219     -0.1393
    167  CE        21.5460    0.9110   55.6250 C.3   219  MET219      0.0692
    168  N         19.3010   10.5010   51.6400 N.3   248  ARG248     -0.1245
    169  CA        19.2610    9.1070   52.0580 C.3   248  ARG248      0.1563
    170  C         17.8810    8.6470   52.4510 C.2   248  ARG248      0.2260
    171  O         17.7560    7.9050   53.3980 O.2   248  ARG248     -0.2867
    172  CB        20.2420    8.9090   53.2040 C.3   248  ARG248      0.0307
    173  CG        21.6730    9.2180   52.7260 C.3   248  ARG248      0.0489
    174  CD        22.7100    9.1040   53.8060 C.3   248  ARG248      0.2205
    175  NE        24.0290    9.0940   53.2190 N.pl3 248  ARG248     -0.0865
    176  CZ        25.0990    8.5440   53.7880 C.cat 248  ARG248      0.5346
    177  NH1       26.2900    8.5710   53.1550 N.pl3 248  ARG248      0.1354
    178  NH2       24.9750    7.9530   54.9710 N.pl3 248  ARG248      0.1354
    179  N         30.5760    9.2070   51.2980 N.3   260  GLU260     -0.1245
    180  CA        31.1310    8.7900   52.5990 C.3   260  GLU260      0.1567
    181  C         32.4240    8.0060   52.4490 C.2   260  GLU260      0.2260
    182  O         32.4250    6.9040   51.8700 O.2   260  GLU260     -0.2867
    183  CB        30.1100    7.9120   53.3210 C.3   260  GLU260      0.0388
    184  CG        30.4340    7.6220   54.7530 C.3   260  GLU260      0.1160
    185  CD        29.2960    6.9330   55.4170 C.2   260  GLU260      0.3649
    186  OE1       29.5650    6.0750   56.2800 O.co2 260  GLU260     -0.2457
    187  OE2       28.1330    7.2420   55.0740 O.co2 260  GLU260     -0.2457
    188  N         31.2650   13.1450   54.0440 N.3   277  THR277     -0.1218
    189  CA        31.3810   12.9240   55.4550 C.3   277  THR277      0.1862
    190  C         32.3580   11.7910   55.7710 C.2   277  THR277      0.2287
    191  O         32.5410   10.8300   54.9870 O.2   277  THR277     -0.2866
    192  CB        30.0050   12.6670   56.0690 C.3   277  THR277      0.1770
    193  OG1       30.1230   12.7010   57.4980 O.3   277  THR277     -0.2211
    194  CG2       29.4380   11.3310   55.6230 C.3   277  THR277      0.0375
    195  N         32.8330    6.4260   63.4660 N.3   284  PHE284     -0.1241
    196  CA        32.0570    7.6250   63.7290 C.3   284  PHE284      0.1605
    197  C         31.8480    7.7560   65.2310 C.2   284  PHE284      0.2264
    198  O         32.0100    8.8130   65.7750 O.2   284  PHE284     -0.2867
    199  CB        30.7170    7.6030   62.9960 C.3   284  PHE284      0.0534
    200  CG        30.8370    7.9390   61.5630 C.ar  284  PHE284     -0.0203
    201  CD1       31.3670    7.0080   60.6590 C.ar  284  PHE284     -0.0042
    202  CD2       30.4110    9.1560   61.0950 C.ar  284  PHE284     -0.0042
    203  CE1       31.4640    7.2730   59.3020 C.ar  284  PHE284     -0.0003
    204  CE2       30.5030    9.4480   59.7220 C.ar  284  PHE284     -0.0003
    205  CZ        31.0310    8.4930   58.8260 C.ar  284  PHE284     -0.0000
@<TRIPOS>BOND
     1    35    34    1
     2    35    36    1
     3   179   180    1
     4    34    31    1
     5   168   169    1
     6   182   181    2
     7    30    31    1
     8    25    24    2
     9   169   170    1
    10   169   172    1
    11    24    23    1
    12    36    37    1
    13   181   180    1
    14   170   171    2
    15    31    32    1
    16   180   183    1
    17   173   172    1
    18   173   174    1
    19    32    33    2
    20   177   176    1
    21   175   176    2
    22   175   174    1
    23   183   184    1
    24    27    29    1
    25    27    28    1
    26    27    26    1
    27   132   133    2
    28   132   131    1
    29   176   178    1
    30    23    26    1
    31    23    22    1
    32   188   189    1
    33   134   131    1
    34   134   135    1
    35   130   131    1
    36   136   135    1
    37   184   185    1
    38   162   163    2
    39   162   161    1
    40   191   190    2
    41   187   185   ar
    42   135   137    1
    43   185   186   ar
    44   189   190    1
    45   189   192    1
    46   161   160    1
    47   161   164    1
    48   194   192    1
    49   167   166    1
    50   160   154   am
    51    42    43    1
    52    42    39    1
    53    60    62   ar
    54    60    58   ar
    55   149   151   ar
    56   149   147   ar
    57   192   193    1
    58   166   165    1
    59   151   150   ar
    60   159   157   ar
    61    48    45   ar
    62    48    50   ar
    63   146   147   ar
    64   146   144   ar
    65    38    39    1
    66    43    45   ar
    67    43    44   ar
    68   147   145   ar
    69    62    61   ar
    70    45    47   ar
    71    50    51   ar
    72   154   153    1
    73   154   155    2
    74    58    57   ar
    75   164   165    1
    76    44    46   ar
    77    39    40    1
    78   153   152    1
    79   153   156    1
    80   144   143   ar
    81   150   148   ar
    82    74    73    1
    83    47    46   ar
    84    47    49   ar
    85   145   148   ar
    86   145   143   ar
    87    51    49   ar
    88   143   142    1
    89   157   156    1
    90   157   158   ar
    91   139   140    1
    92   139   138    1
    93   139   142    1
    94    61    59   ar
    95   140   141    2
    96    52    40   am
    97    52    53    1
    98    57    59   ar
    99    57    56    1
   100    40    41    2
   101    73    72   ar
   102    73    71   ar
   103    72    70   ar
   104   205   203   ar
   105   205   204   ar
   106    56    53    1
   107    71    69   ar
   108   203   201   ar
   109    10    11   ar
   110    10     8   ar
   111    53    54    1
   112    97    95   ar
   113    97    96   ar
   114   204   202   ar
   115    95    93   ar
   116    11     9   ar
   117     8     6   ar
   118    70    68   ar
   119    69    68   ar
   120    96    94   ar
   121    54    55    2
   122   126   124   ar
   123   126   128   ar
   124   201   200   ar
   125    93    92   ar
   126    93    91   ar
   127    68    67    1
   128   116   117   ar
   129   116   114   ar
   130   124   123   ar
   131   117   115   ar
   132     9     7   ar
   133   202   200   ar
   134   129   128    1
   135     6     7   ar
   136     6     5    1
   137    92    90   ar
   138   128   127   ar
   139    94    91   ar
   140   200   199    1
   141    91    89   ar
   142     5     2    1
   143   114   113   ar
   144   115   113   ar
   145   123   122    1
   146   123   125   ar
   147   119   122    1
   148   119   120    1
   149   119   118    1
   150    67    64    1
   151    90    89   ar
   152     1     2    1
   153   113   112    1
   154    21    20   ar
   155    21    19   ar
   156    89    88    1
   157   127   125   ar
   158    20    18   ar
   159    63    64    1
   160   120   121    2
   161     2     3    1
   162    82    81   ar
   163   199   196    1
   164    64    65    1
   165   107   106   ar
   166   107   105   ar
   167   106   104   ar
   168   195   196    1
   169   112   109    1
   170    19    17   ar
   171   196   197    1
   172    18    17   ar
   173    88    85    1
   174     3     4    2
   175    81    83   ar
   176    81    80    1
   177   104   103   ar
   178   105   103   ar
   179   109   108    1
   180   109   110    1
   181    65    66    2
   182    17    16    1
   183   108   100   am
   184   103   102    1
   185    80    79    1
   186    85    84    1
   187    85    86    1
   188   197   198    2
   189   100    99    1
   190   100   101    2
   191   111   110    2
   192    99   102    1
   193    99    98    1
   194    84    77   am
   195    16    13    1
   196    79    76    1
   197    87    86    2
   198    77    76    1
   199    77    78    2
   200    12    13    1
   201    75    76    1
   202    13    14    1
   203    14    15    2
