@<TRIPOS>MOLECULE
tmp/2zxcA00.pdb
 147 145 0 0 0
SMALL
GASTEIGER

@<TRIPOS>ATOM
      1  N          6.3650    2.3370   53.7840 N.3    24  GLY24      -0.1210
      2  CA         5.6480    1.0940   53.5950 C.3    24  GLY24       0.1956
      3  C          5.6210    0.5900   52.1690 C.2    24  GLY24       0.2612
      4  O          5.9880   -0.5540   51.8950 O.2    24  GLY24      -0.2717
      5  N          5.1920    1.4530   51.2560 N.am   25  TYR25      -0.1962
      6  CA         5.0740    1.0950   49.8510 C.3    25  TYR25       0.1771
      7  C          6.3230    1.3390   49.0150 C.2    25  TYR25       0.2620
      8  O          6.3330    1.0400   47.8250 O.2    25  TYR25      -0.2715
      9  CB         3.8870    1.8420   49.2400 C.3    25  TYR25       0.0574
     10  CG         2.5600    1.4200   49.8190 C.ar   25  TYR25      -0.0198
     11  CD1        1.6010    2.3640   50.1790 C.ar   25  TYR25      -0.0009
     12  CD2        2.2450    0.0660   49.9760 C.ar   25  TYR25      -0.0009
     13  CE1        0.3610    1.9740   50.6750 C.ar   25  TYR25       0.0417
     14  CE2        1.0060   -0.3340   50.4700 C.ar   25  TYR25       0.0417
     15  CZ         0.0700    0.6250   50.8140 C.ar   25  TYR25       0.1957
     16  OH        -1.1660    0.2330   51.2760 O.3    25  TYR25      -0.2866
     17  N          7.3700    1.8780   49.6290 N.am   26  SER26      -0.1950
     18  CA         8.6040    2.1430   48.9050 C.3    26  SER26       0.1924
     19  C          8.3310    2.8990   47.6140 C.2    26  SER26       0.2314
     20  O          9.0320    2.7070   46.6230 O.2    26  SER26      -0.2863
     21  CB         9.3140    0.8330   48.5590 C.3    26  SER26       0.2116
     22  OG         9.6550    0.1120   49.7280 O.3    26  SER26      -0.2180
     23  N          0.7180    1.8260   56.4220 N.3    98  HIS98      -0.1241
     24  CA         1.5490    2.2390   55.3020 C.3    98  HIS98       0.1621
     25  C          1.2610    3.6740   54.8570 C.2    98  HIS98       0.2264
     26  O          1.7190    4.1040   53.7930 O.2    98  HIS98      -0.2867
     27  CB         1.3290    1.2730   54.1250 C.3    98  HIS98       0.0745
     28  CG         1.9910   -0.0620   54.3000 C.ar   98  HIS98       0.0817
     29  ND1        1.8590   -0.8180   55.4450 N.ar   98  HIS98      -0.2268
     30  CD2        2.7930   -0.7750   53.4710 C.ar   98  HIS98       0.1154
     31  CE1        2.5530   -1.9370   55.3160 C.ar   98  HIS98       0.1986
     32  NE2        3.1290   -1.9350   54.1270 N.ar   98  HIS98      -0.2212
     33  N         -1.8270  -13.4290   51.3490 N.3   159  ARG159     -0.1245
     34  CA        -1.4090  -12.9290   50.0390 C.3   159  ARG159      0.1563
     35  C         -0.3680  -13.8080   49.3600 C.2   159  ARG159      0.2260
     36  O          0.0070  -13.5670   48.2180 O.2   159  ARG159     -0.2867
     37  CB        -0.8650  -11.5100   50.1750 C.3   159  ARG159      0.0307
     38  CG         0.4290  -11.4230   50.9730 C.3   159  ARG159      0.0489
     39  CD         0.7750   -9.9830   51.2920 C.3   159  ARG159      0.2205
     40  NE         2.1480   -9.8480   51.7670 N.pl3 159  ARG159     -0.0865
     41  CZ         2.6810   -8.7080   52.1840 C.cat 159  ARG159      0.5346
     42  NH1        1.9520   -7.6010   52.1920 N.pl3 159  ARG159      0.1354
     43  NH2        3.9450   -8.6720   52.5860 N.pl3 159  ARG159      0.1354
     44  N         -2.0260   -6.8170   57.5760 N.3   203  HIS203     -0.1241
     45  CA        -1.3370   -5.6110   57.1560 C.3   203  HIS203      0.1621
     46  C         -2.2960   -4.4270   57.2590 C.2   203  HIS203      0.2264
     47  O         -3.4940   -4.5530   56.9790 O.2   203  HIS203     -0.2867
     48  CB        -0.8420   -5.7530   55.7020 C.3   203  HIS203      0.0745
     49  CG         0.6020   -6.1450   55.5830 C.ar  203  HIS203      0.0817
     50  ND1        1.0780   -7.3730   55.9820 N.ar  203  HIS203     -0.2268
     51  CD2        1.6770   -5.4570   55.1270 C.ar  203  HIS203      0.1154
     52  CE1        2.3820   -7.4290   55.7790 C.ar  203  HIS203      0.1986
     53  NE2        2.7730   -6.2760   55.2620 N.ar  203  HIS203     -0.2212
     54  N         -2.8080   -1.9750   55.4060 N.3   205  THR205     -0.1218
     55  CA        -2.6440   -1.4610   54.0610 C.3   205  THR205      0.1862
     56  C         -3.9710   -1.2360   53.3510 C.2   205  THR205      0.2287
     57  O         -4.0460   -1.3850   52.1350 O.2   205  THR205     -0.2866
     58  CB        -1.8300   -2.4470   53.2190 C.3   205  THR205      0.1770
     59  OG1       -2.4210   -3.7430   53.3450 O.3   205  THR205     -0.2211
     60  CG2       -0.3850   -2.5170   53.6980 C.3   205  THR205      0.0375
     61  N         11.3720  -11.3270   43.1420 N.3   328  SER328     -0.1202
     62  CA        10.2090  -12.1790   43.2520 C.3   328  SER328      0.2020
     63  C          9.1600  -11.6460   42.2990 C.2   328  SER328      0.2619
     64  O          9.3380  -10.5820   41.7050 O.2   328  SER328     -0.2717
     65  CB         9.6690  -12.2140   44.6830 C.3   328  SER328      0.2103
     66  OG         9.4570  -10.9110   45.1880 O.3   328  SER328     -0.2182
     67  N          8.0680  -12.3780   42.1470 N.am  329  LEU329     -0.1965
     68  CA         7.0030  -11.9720   41.2240 C.3   329  LEU329      0.1728
     69  C          5.9540  -11.0070   41.8010 C.2   329  LEU329      0.2616
     70  O          5.7020  -11.0020   42.9750 O.2   329  LEU329     -0.2715
     71  CB         6.2680  -13.2290   40.7530 C.3   329  LEU329      0.0311
     72  CG         5.3370  -13.0870   39.5640 C.3   329  LEU329      0.0022
     73  CD1        6.2010  -13.2160   38.3330 C.3   329  LEU329      0.0001
     74  CD2        4.2630  -14.1850   39.5410 C.3   329  LEU329      0.0001
     75  N          5.3160  -10.2520   40.9290 N.am  330  ALA330     -0.1977
     76  CA         4.2300   -9.3180   41.2830 C.3   330  ALA330      0.1597
     77  C          3.8090   -9.3970   39.8900 C.2   330  ALA330      0.2287
     78  O          3.5090  -10.3840   39.3310 O.2   330  ALA330     -0.2864
     79  CB         4.7900   -7.8600   41.5000 C.3   330  ALA330      0.0319
     80  N          2.6890   -3.8670   42.0220 N.3   333  SER333     -0.1202
     81  CA         3.1010   -4.8270   43.0140 C.3   333  SER333      0.1997
     82  C          2.1810   -5.3850   43.9370 C.2   333  SER333      0.2189
     83  O          1.0590   -5.5900   43.4890 O.2   333  SER333     -0.4398
     84  CB         4.3670   -4.6110   43.6650 C.3   333  SER333      0.2104
     85  OG         4.7370   -5.9370   43.3630 O.3   333  SER333     -0.2182
     86  N          2.5370   -5.5880   45.2100 N.2   334  THR334     -0.2264
     87  CA         1.4490   -6.2310   45.6950 C.3   334  THR334      0.2489
     88  C          1.0600   -6.6880   47.1960 C.2   334  THR334      0.2704
     89  O          1.4570   -7.7890   47.8010 O.2   334  THR334     -0.2710
     90  CB         0.9920   -7.2350   44.3180 C.3   334  THR334      0.2878
     91  OG1       -0.1320   -8.2030   44.6840 O.3   334  THR334     -0.1785
     92  CG2        2.5560   -8.1520   44.1310 C.3   334  THR334      0.0815
     93  N          0.3630   -5.6560   47.7020 N.am  335  GLU335     -0.1973
     94  CA        -0.2660   -5.5700   48.9210 C.3   335  GLU335      0.1602
     95  C         -0.3030   -4.0860   49.1540 C.2   335  GLU335      0.2287
     96  O         -0.5940   -3.5800   50.1830 O.2   335  GLU335     -0.2864
     97  CB         0.3210   -6.4200   49.9340 C.3   335  GLU335      0.0415
     98  CG        -0.8960   -7.1330   50.4950 C.3   335  GLU335      0.1163
     99  CD        -1.3160   -6.4570   51.7570 C.2   335  GLU335      0.3649
    100  OE1       -0.6860   -6.7500   52.7890 O.co2 335  GLU335     -0.2457
    101  OE2       -2.2250   -5.6070   51.7250 O.co2 335  GLU335     -0.2457
    102  N          2.3460   -1.0390   47.2510 N.3   337  GLY337     -0.1210
    103  CA         3.0940   -0.2650   46.2600 C.3   337  GLY337      0.1940
    104  C          3.9960   -0.8660   45.1300 C.2   337  GLY337      0.2454
    105  O          3.7520   -1.9300   44.4740 O.2   337  GLY337     -0.2732
    106  N          5.0080   -0.0720   44.7240 N.am  338  PRO338     -0.2717
    107  CA         5.9920   -0.5020   43.7100 C.3   338  PRO338      0.1536
    108  C          6.8510   -1.4360   44.5840 C.2   338  PRO338      0.2599
    109  O          6.8110   -1.3170   45.8070 O.2   338  PRO338     -0.2715
    110  CB         6.6770    0.8000   43.3290 C.3   338  PRO338      0.0310
    111  CG         5.4950    1.7500   43.3260 C.3   338  PRO338      0.0237
    112  CD         4.8160    1.3920   44.6290 C.3   338  PRO338      0.0939
    113  N          7.6180   -2.3470   43.9960 N.am  339  GLY339     -0.1941
    114  CA         8.3030   -3.3310   44.8280 C.3   339  GLY339      0.1998
    115  C          9.7130   -3.3980   45.3910 C.2   339  GLY339      0.2480
    116  O         10.2260   -2.4430   45.9840 O.2   339  GLY339     -0.2729
    117  N         10.3280   -4.5990   45.2750 N.am  340  PRO340     -0.2726
    118  CA        11.6690   -5.0030   45.7090 C.3   340  PRO340      0.1402
    119  C         12.6880   -3.9480   45.3550 C.2   340  PRO340      0.2269
    120  O         13.5970   -4.1390   44.5400 O.2   340  PRO340     -0.2865
    121  CB        11.8690   -6.3320   44.9930 C.3   340  PRO340      0.0296
    122  CG        10.4990   -6.9180   45.0960 C.3   340  PRO340      0.0237
    123  CD         9.6300   -5.7520   44.6760 C.3   340  PRO340      0.0939
    124  N         11.2690   -9.1870   56.4000 N.3   447  TYR447     -0.1241
    125  CA        10.4550  -10.3800   56.5830 C.3   447  TYR447      0.1605
    126  C         11.0990  -11.6610   57.0780 C.2   447  TYR447      0.2264
    127  O         12.2890  -11.9150   56.8880 O.2   447  TYR447     -0.2867
    128  CB         9.7230  -10.6980   55.2820 C.3   447  TYR447      0.0534
    129  CG         8.6690   -9.6890   54.9070 C.ar  447  TYR447     -0.0201
    130  CD1        9.0100   -8.4540   54.3530 C.ar  447  TYR447     -0.0009
    131  CD2        7.3220   -9.9730   55.1050 C.ar  447  TYR447     -0.0009
    132  CE1        8.0160   -7.5310   54.0000 C.ar  447  TYR447      0.0417
    133  CE2        6.3340   -9.0650   54.7650 C.ar  447  TYR447      0.0417
    134  CZ         6.6830   -7.8590   54.2100 C.ar  447  TYR447      0.1957
    135  OH         5.6740   -7.0230   53.8140 O.3   447  TYR447     -0.2866
    136  N          7.2770  -13.0870   47.5920 N.3   459  TYR459     -0.1241
    137  CA         7.6940  -11.8210   48.1730 C.3   459  TYR459      0.1605
    138  C          8.3220  -11.8630   49.5750 C.2   459  TYR459      0.2264
    139  O          9.4130  -11.3370   49.7750 O.2   459  TYR459     -0.2867
    140  CB         6.5220  -10.8430   48.1890 C.3   459  TYR459      0.0534
    141  CG         6.9120   -9.4950   48.7340 C.ar  459  TYR459     -0.0201
    142  CD1        7.6160   -8.5810   47.9500 C.ar  459  TYR459     -0.0009
    143  CD2        6.6090   -9.1430   50.0440 C.ar  459  TYR459     -0.0009
    144  CE1        8.0080   -7.3430   48.4620 C.ar  459  TYR459      0.0417
    145  CE2        6.9940   -7.9140   50.5650 C.ar  459  TYR459      0.0417
    146  CZ         7.6920   -7.0200   49.7700 C.ar  459  TYR459      0.1957
    147  OH         8.0680   -5.8000   50.2890 O.3   459  TYR459     -0.2866
@<TRIPOS>BOND
     1    73    72    1
     2    78    77    2
     3    74    72    1
     4    72    71    1
     5    77    76    1
     6    71    68    1
     7    75    76    1
     8    75    69   am
     9    68    69    1
    10    68    67    1
    11    76    79    1
    12    64    63    2
    13    69    70    2
    14    80    81    1
    15    67    63   am
    16    63    62    1
    17    81    84    1
    18    81    82    1
    19    61    62    1
    20    62    65    1
    21   111   110    1
    22   111   112    1
    23   110   107    1
    24    85    84    1
    25    83    82    1
    26    83    90    1
    27   107   108    1
    28   107   106    1
    29    82    86    2
    30   113   108   am
    31   113   114    1
    32    92    90    1
    33    90    91    1
    34    90    87    1
    35   105   104    2
    36   120   119    2
    37   108   109    2
    38   112   106    1
    39   123   122    1
    40   123   117    1
    41    65    66    1
    42   106   104   am
    43   114   115    1
    44   121   122    1
    45   121   118    1
    46   104   103    1
    47    86    87    1
    48   117   115   am
    49   117   118    1
    50   119   118    1
    51   115   116    2
    52    87    88    1
    53   103   102    1
    54    20    19    2
    55    88    93   am
    56    88    89    2
    57   136   137    1
    58    19    18    1
    59    93    94    1
    60     8     7    2
    61   142   144   ar
    62   142   141   ar
    63   137   140    1
    64   137   138    1
    65   140   141    1
    66    36    35    2
    67   144   146   ar
    68    21    18    1
    69    21    22    1
    70   141   143   ar
    71    18    17    1
    72    94    95    1
    73    94    97    1
    74     7    17   am
    75     7     6    1
    76    95    96    2
    77     9    10    1
    78     9     6    1
    79    35    34    1
    80   138   139    2
    81   146   147    1
    82   146   145   ar
    83    10    12   ar
    84    10    11   ar
    85     6     5    1
    86    97    98    1
    87    12    14   ar
    88    34    37    1
    89    34    33    1
    90   143   145   ar
    91    37    38    1
    92    11    13   ar
    93    14    15   ar
    94    98    99    1
    95    13    15   ar
    96    15    16    1
    97    38    39    1
    98     5     3   am
    99    39    40    1
   100   101    99   ar
   101    99   100   ar
   102    40    41    2
   103     4     3    2
   104    57    56    2
   105     3     2    1
   106    41    42    1
   107    41    43    1
   108    58    59    1
   109    58    60    1
   110    58    55    1
   111    56    55    1
   112    30    32   ar
   113    30    28   ar
   114     2     1    1
   115    26    25    2
   116   135   134    1
   117   132   134   ar
   118   132   130   ar
   119    55    54    1
   120    27    28    1
   121    27    24    1
   122    32    31   ar
   123   134   133   ar
   124    28    29   ar
   125   130   129   ar
   126   133   131   ar
   127    25    24    1
   128   129   131   ar
   129   129   128    1
   130    51    53   ar
   131    51    49   ar
   132    53    52   ar
   133   128   125    1
   134    24    23    1
   135    31    29   ar
   136    49    48    1
   137    49    50   ar
   138    48    45    1
   139    52    50   ar
   140   124   125    1
   141   125   126    1
   142   127   126    2
   143    47    46    2
   144    45    46    1
   145    45    44    1
