@<TRIPOS>MOLECULE
tmp/2zxdB00.pdb
 156 155 0 0 0
SMALL
GASTEIGER

@<TRIPOS>ATOM
      1  N         29.8160   16.4170   62.6890 N.3    26  PHE26      -0.1241
      2  CA        28.8750   15.2960   62.9080 C.3    26  PHE26       0.1605
      3  C         29.2000   14.7990   64.3380 C.2    26  PHE26       0.2264
      4  O         30.3930   14.7910   64.7280 O.2    26  PHE26      -0.2867
      5  CB        29.2330   14.1210   61.9610 C.3    26  PHE26       0.0534
      6  CG        28.0440   13.4790   61.2250 C.ar   26  PHE26      -0.0203
      7  CD1       26.7230   13.5960   61.7100 C.ar   26  PHE26      -0.0042
      8  CD2       28.2730   12.7560   60.0410 C.ar   26  PHE26      -0.0042
      9  CE1       25.6520   13.0150   61.0260 C.ar   26  PHE26      -0.0003
     10  CE2       27.1900   12.1560   59.3400 C.ar   26  PHE26      -0.0003
     11  CZ        25.8770   12.2860   59.8260 C.ar   26  PHE26      -0.0000
     12  N         28.5290   11.3650   66.6280 N.3    28  HIS28      -0.1241
     13  CA        27.9280   10.0450   66.8600 C.3    28  HIS28       0.1621
     14  C         28.1700    9.8080   68.3710 C.2    28  HIS28       0.2264
     15  O         29.3170    9.6270   68.8220 O.2    28  HIS28      -0.2867
     16  CB        28.5910    8.9830   66.0260 C.3    28  HIS28       0.0745
     17  CG        27.9980    8.8520   64.6500 C.ar   28  HIS28       0.0817
     18  ND1       28.0250    9.8750   63.7160 N.ar   28  HIS28      -0.2268
     19  CD2       27.3810    7.8040   64.0420 C.ar   28  HIS28       0.1154
     20  CE1       27.4610    9.4570   62.5880 C.ar   28  HIS28       0.1986
     21  NE2       27.0550    8.2060   62.7600 N.ar   28  HIS28      -0.2212
     22  N         33.4840    0.1730   63.2390 N.3    58  TYR58      -0.1241
     23  CA        32.5720    1.2200   63.7490 C.3    58  TYR58       0.1605
     24  C         32.1220    0.8400   65.1760 C.2    58  TYR58       0.2264
     25  O         31.3220   -0.1010   65.3720 O.2    58  TYR58      -0.2867
     26  CB        31.3220    1.3530   62.8580 C.3    58  TYR58       0.0534
     27  CG        31.5480    1.9140   61.4700 C.ar   58  TYR58      -0.0201
     28  CD1       32.8210    2.3500   61.0600 C.ar   58  TYR58      -0.0009
     29  CD2       30.4730    2.0340   60.5570 C.ar   58  TYR58      -0.0009
     30  CE1       33.0370    2.8900   59.7890 C.ar   58  TYR58       0.0417
     31  CE2       30.6690    2.5690   59.2770 C.ar   58  TYR58       0.0417
     32  CZ        31.9610    2.9970   58.9010 C.ar   58  TYR58       0.1957
     33  OH        32.1800    3.5340   57.6490 O.3    58  TYR58      -0.2866
     34  N         30.1220    2.3340   67.0350 N.3    60  GLU60      -0.1231
     35  CA        28.6840    2.5250   67.2480 C.3    60  GLU60       0.1699
     36  C         27.8870    1.2650   66.8260 C.2    60  GLU60       0.2592
     37  O         26.6970    1.1860   67.1570 O.2    60  GLU60      -0.2718
     38  CB        28.1120    3.7890   66.5080 C.3    60  GLU60       0.0402
     39  CG        28.0790    3.7030   64.9480 C.3    60  GLU60       0.1161
     40  CD        29.4480    3.9290   64.2930 C.2    60  GLU60       0.3649
     41  OE1       30.4700    4.0170   65.0320 O.co2  60  GLU60      -0.2457
     42  OE2       29.4930    4.0200   63.0350 O.co2  60  GLU60      -0.2457
     43  N         28.5310    0.2930   66.1480 N.am   61  TRP61      -0.1976
     44  CA        27.8690   -0.9480   65.7410 C.3    61  TRP61       0.1640
     45  C         28.0680   -2.0350   66.7840 C.2    61  TRP61       0.2290
     46  O         27.7910   -3.2220   66.5520 O.2    61  TRP61      -0.2864
     47  CB        28.3780   -1.4490   64.3890 C.3    61  TRP61       0.0576
     48  CG        27.6140   -0.8450   63.1970 C.ar   61  TRP61       0.0006
     49  CD1       27.6300    0.4770   62.7780 C.ar   61  TRP61       0.0946
     50  CD2       26.7580   -1.5570   62.2610 C.ar   61  TRP61       0.0152
     51  NE1       26.8590    0.6180   61.6500 N.ar   61  TRP61      -0.2442
     52  CE2       26.3070   -0.6010   61.3070 C.ar   61  TRP61       0.0810
     53  CE3       26.3380   -2.9090   62.1390 C.ar   61  TRP61       0.0012
     54  CZ2       25.4440   -0.9490   60.2360 C.ar   61  TRP61       0.0191
     55  CZ3       25.4800   -3.2640   61.0740 C.ar   61  TRP61       0.0001
     56  CH2       25.0400   -2.2790   60.1350 C.ar   61  TRP61       0.0015
     57  N         20.5130    6.3900   66.8660 N.3   122  HIS122     -0.1226
     58  CA        21.3120    5.6550   65.9000 C.3   122  HIS122      0.1752
     59  C         20.6810    4.2510   65.7340 C.2   122  HIS122      0.2596
     60  O         19.5440    4.0350   66.1800 O.2   122  HIS122     -0.2718
     61  CB        22.7810    5.5890   66.3160 C.3   122  HIS122      0.0759
     62  CG        23.6950    5.2580   65.1630 C.ar  122  HIS122      0.0818
     63  ND1       24.1430    3.9740   64.8910 N.ar  122  HIS122     -0.2268
     64  CD2       24.2210    6.0500   64.1970 C.ar  122  HIS122      0.1154
     65  CE1       24.9060    3.9970   63.8150 C.ar  122  HIS122      0.1986
     66  NE2       24.9760    5.2440   63.3750 N.ar  122  HIS122     -0.2212
     67  N         21.3790    3.3080   65.1360 N.am  123  HIS123     -0.1975
     68  CA        20.7460    1.9880   64.8700 C.3   123  HIS123      0.1656
     69  C         20.2320    1.2220   66.0670 C.2   123  HIS123      0.2291
     70  O         19.2840    0.4300   65.9320 O.2   123  HIS123     -0.2864
     71  CB        21.6910    1.0570   64.0890 C.3   123  HIS123      0.0771
     72  CG        22.3150    1.6880   62.8610 C.ar  123  HIS123      0.0820
     73  ND1       21.7520    2.7650   62.1950 N.ar  123  HIS123     -0.2267
     74  CD2       23.4680    1.3920   62.1910 C.ar  123  HIS123      0.1154
     75  CE1       22.5340    3.1140   61.1770 C.ar  123  HIS123      0.1986
     76  NE2       23.5820    2.2950   61.1490 N.ar  123  HIS123     -0.2212
     77  N         20.4980   14.0100   63.0580 N.3   165  TYR165     -0.1241
     78  CA        20.7010   12.7600   62.3890 C.3   165  TYR165      0.1605
     79  C         19.6590   11.8170   63.0350 C.2   165  TYR165      0.2264
     80  O         19.4140   11.8400   64.2520 O.2   165  TYR165     -0.2867
     81  CB        22.1470   12.2350   62.6230 C.3   165  TYR165      0.0534
     82  CG        22.3370   10.7910   62.2420 C.ar  165  TYR165     -0.0201
     83  CD1       23.0960   10.4210   61.1110 C.ar  165  TYR165     -0.0009
     84  CD2       21.7750    9.7830   63.0280 C.ar  165  TYR165     -0.0009
     85  CE1       23.2950    9.0650   60.7790 C.ar  165  TYR165      0.0417
     86  CE2       21.9500    8.4530   62.7350 C.ar  165  TYR165      0.0417
     87  CZ        22.7080    8.0790   61.6100 C.ar  165  TYR165      0.1957
     88  OH        22.8420    6.7300   61.3500 O.3   165  TYR165     -0.2866
     89  N         18.8890   14.8740   58.6290 N.3   216  TRP216     -0.1241
     90  CA        19.8880   13.9510   58.0930 C.3   216  TRP216      0.1605
     91  C         19.4950   12.4950   58.3940 C.2   216  TRP216      0.2264
     92  O         19.8340   11.9450   59.4570 O.2   216  TRP216     -0.2867
     93  CB        21.2680   14.3010   58.7230 C.3   216  TRP216      0.0550
     94  CG        22.4860   14.1390   57.8210 C.ar  216  TRP216      0.0003
     95  CD1       23.1710   15.1440   57.1680 C.ar  216  TRP216      0.0946
     96  CD2       23.1670   12.9100   57.4840 C.ar  216  TRP216      0.0152
     97  NE1       24.2270   14.6080   56.4460 N.ar  216  TRP216     -0.2442
     98  CE2       24.2500   13.2480   56.6330 C.ar  216  TRP216      0.0810
     99  CE3       22.9590   11.5570   57.8170 C.ar  216  TRP216      0.0012
    100  CZ2       25.1240   12.2930   56.1190 C.ar  216  TRP216      0.0191
    101  CZ3       23.8070   10.6070   57.3050 C.ar  216  TRP216      0.0001
    102  CH2       24.8980   10.9800   56.4500 C.ar  216  TRP216      0.0015
    103  N         19.4250    8.3020   57.7790 N.3   218  ASP218     -0.1225
    104  CA        20.4580    7.3500   57.3870 C.3   218  ASP218      0.1805
    105  C         19.8300    5.9880   57.1530 C.2   218  ASP218      0.2597
    106  O         18.7930    5.6510   57.7510 O.2   218  ASP218     -0.2718
    107  CB        21.5540    7.2660   58.4730 C.3   218  ASP218      0.1424
    108  CG        22.8740    6.6840   57.9700 C.2   218  ASP218      0.3668
    109  OD1       23.7070    6.3080   58.8280 O.co2 218  ASP218     -0.2456
    110  OD2       23.1250    6.6020   56.7400 O.co2 218  ASP218     -0.2456
    111  N         20.4520    5.2280   56.2490 N.am  219  MET219     -0.1979
    112  CA        20.0750    3.8730   55.8860 C.3   219  MET219      0.1605
    113  C         18.7290    3.6890   55.1410 C.2   219  MET219      0.2287
    114  O         18.1620    2.6010   55.1290 O.2   219  MET219     -0.2864
    115  CB        20.1740    2.9810   57.1390 C.3   219  MET219      0.0413
    116  CG        21.5960    3.0020   57.7430 C.3   219  MET219      0.0598
    117  SD        22.9270    2.5530   56.5370 S.3   219  MET219     -0.1393
    118  CE        22.7310    0.8550   56.4570 C.3   219  MET219      0.0692
    119  N         19.2700   10.3710   51.8020 N.3   248  ARG248     -0.1245
    120  CA        19.2530    8.9940   52.2660 C.3   248  ARG248      0.1563
    121  C         17.8500    8.5250   52.6530 C.2   248  ARG248      0.2260
    122  O         17.6790    7.7250   53.5790 O.2   248  ARG248     -0.2867
    123  CB        20.2440    8.8730   53.4260 C.3   248  ARG248      0.0307
    124  CG        21.7080    9.1160   52.9690 C.3   248  ARG248      0.0489
    125  CD        22.7770    8.8990   54.1080 C.3   248  ARG248      0.2205
    126  NE        24.0950    8.9940   53.4820 N.pl3 248  ARG248     -0.0865
    127  CZ        25.1540    8.2900   53.8670 C.cat 248  ARG248      0.5346
    128  NH1       26.2880    8.4190   53.1990 N.pl3 248  ARG248      0.1354
    129  NH2       25.0910    7.5040   54.9410 N.pl3 248  ARG248      0.1354
    130  N         30.9390    9.3560   50.7450 N.3   260  GLU260     -0.1245
    131  CA        31.9520    8.7940   51.6220 C.3   260  GLU260      0.1567
    132  C         33.0440    8.2890   50.6700 C.2   260  GLU260      0.2260
    133  O         32.8360    8.2940   49.4500 O.2   260  GLU260     -0.2867
    134  CB        31.3340    7.6420   52.4190 C.3   260  GLU260      0.0388
    135  CG        30.2450    8.1350   53.3300 C.3   260  GLU260      0.1160
    136  CD        29.6530    7.0180   54.1530 C.2   260  GLU260      0.3649
    137  OE1       30.3700    6.5100   55.0370 O.co2 260  GLU260     -0.2457
    138  OE2       28.4920    6.6230   53.9120 O.co2 260  GLU260     -0.2457
    139  N         31.3590   13.0690   54.1060 N.3   277  THR277     -0.1218
    140  CA        31.4240   12.8100   55.5090 C.3   277  THR277      0.1862
    141  C         32.3700   11.6670   55.8000 C.2   277  THR277      0.2287
    142  O         32.4920   10.7260   55.0150 O.2   277  THR277     -0.2866
    143  CB        30.0040   12.4940   56.1060 C.3   277  THR277      0.1770
    144  OG1       30.1340   12.3020   57.5010 O.3   277  THR277     -0.2211
    145  CG2       29.4020   11.2030   55.5350 C.3   277  THR277      0.0375
    146  N         32.7670    5.9480   63.9330 N.3   284  PHE284     -0.1241
    147  CA        32.0890    7.2190   64.1180 C.3   284  PHE284      0.1605
    148  C         31.9350    7.3940   65.6490 C.2   284  PHE284      0.2264
    149  O         32.2960    8.4440   66.2190 O.2   284  PHE284     -0.2867
    150  CB        30.7590    7.2790   63.3420 C.3   284  PHE284      0.0534
    151  CG        30.9780    7.4200   61.8470 C.ar  284  PHE284     -0.0203
    152  CD1       31.1820    6.2850   61.0370 C.ar  284  PHE284     -0.0042
    153  CD2       31.0660    8.6880   61.2690 C.ar  284  PHE284     -0.0042
    154  CE1       31.4730    6.4190   59.6380 C.ar  284  PHE284     -0.0003
    155  CE2       31.3560    8.8410   59.8680 C.ar  284  PHE284     -0.0003
    156  CZ        31.5540    7.7030   59.0640 C.ar  284  PHE284     -0.0000
@<TRIPOS>BOND
     1   133   132    2
     2   132   131    1
     3   130   131    1
     4   131   134    1
     5   119   120    1
     6   120   121    1
     7   120   123    1
     8   134   135    1
     9   121   122    2
    10   124   123    1
    11   124   125    1
    12   128   127    1
    13   135   136    1
    14   126   127    2
    15   126   125    1
    16   127   129    1
    17   138   136   ar
    18   139   140    1
    19   136   137   ar
    20   142   141    2
    21   114   113    2
    22   113   112    1
    23   140   141    1
    24   140   143    1
    25   145   143    1
    26   112   111    1
    27   112   115    1
    28   143   144    1
    29   100   102   ar
    30   100    98   ar
    31   111   105   am
    32    97    98   ar
    33    97    95   ar
    34   102   101   ar
    35   118   117    1
    36   117   116    1
    37    98    96   ar
    38   110   108   ar
    39   115   116    1
    40   105   104    1
    41   105   106    2
    42    95    94   ar
    43   101    99   ar
    44   104   103    1
    45   104   107    1
    46    96    99   ar
    47    96    94   ar
    48    33    32    1
    49    94    93    1
    50   108   107    1
    51   108   109   ar
    52    90    91    1
    53    90    89    1
    54    90    93    1
    55    91    92    2
    56    32    31   ar
    57    32    30   ar
    58   156   154   ar
    59   156   155   ar
    60    31    29   ar
    61    10    11   ar
    62    10     8   ar
    63   154   152   ar
    64    30    28   ar
    65    11     9   ar
    66   155   153   ar
    67     8     6   ar
    68    56    54   ar
    69    56    55   ar
    70    54    52   ar
    71    29    27   ar
    72    85    83   ar
    73    85    87   ar
    74     9     7   ar
    75   152   151   ar
    76    28    27   ar
    77    55    53   ar
    78    83    82   ar
    79    76    75   ar
    80    76    74   ar
    81    75    73   ar
    82     6     7   ar
    83     6     5    1
    84   153   151   ar
    85    52    51   ar
    86    52    50   ar
    87    88    87    1
    88    27    26    1
    89    87    86   ar
    90    51    49   ar
    91   151   150    1
    92     5     2    1
    93    53    50   ar
    94    74    72   ar
    95    73    72   ar
    96    82    81    1
    97    82    84   ar
    98    50    48   ar
    99    78    81    1
   100    78    79    1
   101    78    77    1
   102    20    21   ar
   103    20    18   ar
   104     1     2    1
   105    86    84   ar
   106    21    19   ar
   107    49    48   ar
   108    26    23    1
   109    72    71    1
   110     2     3    1
   111    79    80    2
   112    42    40   ar
   113    48    47    1
   114    22    23    1
   115   150   147    1
   116    66    65   ar
   117    66    64   ar
   118    18    17   ar
   119    23    24    1
   120    65    63   ar
   121   146   147    1
   122    19    17   ar
   123    71    68    1
   124   147   148    1
   125    64    62   ar
   126    40    39    1
   127    40    41   ar
   128     3     4    2
   129    47    44    1
   130    17    16    1
   131    68    67    1
   132    68    69    1
   133    63    62   ar
   134    39    38    1
   135    67    59   am
   136    62    61    1
   137    24    25    2
   138   148   149    2
   139    59    58    1
   140    59    60    2
   141    44    43    1
   142    44    45    1
   143    58    61    1
   144    58    57    1
   145    70    69    2
   146    16    13    1
   147    43    36   am
   148    38    35    1
   149    46    45    2
   150    12    13    1
   151    36    37    2
   152    36    35    1
   153    13    14    1
   154    34    35    1
   155    14    15    2
