@<TRIPOS>MOLECULE
tmp/2zxgA00.pdb
 192 183 0 0 0
SMALL
GASTEIGER

@<TRIPOS>ATOM
      1  N         65.5050   45.6390   13.9470 N.3   117  GLU117     -0.1245
      2  CA        66.8880   45.8140   14.4260 C.3   117  GLU117      0.1567
      3  C         67.1310   47.2920   14.7610 C.2   117  GLU117      0.2260
      4  O         66.7570   48.1550   13.9850 O.2   117  GLU117     -0.2867
      5  CB        67.9070   45.3290   13.3860 C.3   117  GLU117      0.0388
      6  CG        69.3210   45.3150   13.9480 C.3   117  GLU117      0.1160
      7  CD        70.3650   44.8190   12.9770 C.2   117  GLU117      0.3649
      8  OE1       71.5350   44.7330   13.3770 O.co2 117  GLU117     -0.2457
      9  OE2       70.0250   44.5050   11.8200 O.co2 117  GLU117     -0.2457
     10  N         64.4330   53.4240    7.3890 N.3   255  ASN255     -0.1225
     11  CA        65.5680   54.1310    8.0290 C.3   255  ASN255      0.1785
     12  C         66.9450   53.5160    7.7720 C.2   255  ASN255      0.2597
     13  O         67.9490   53.9330    8.3720 O.2   255  ASN255     -0.2718
     14  CB        65.3840   54.1560    9.5460 C.3   255  ASN255      0.1169
     15  CG        64.3710   55.1670   10.0090 C.2   255  ASN255      0.2627
     16  OD1       63.9680   56.0630    9.2690 O.2   255  ASN255     -0.2716
     17  ND2       63.9520   55.0300   11.2600 N.am  255  ASN255     -0.0877
     18  N         67.0140   52.4950    6.9430 N.am  256  MET256     -0.1965
     19  CA        68.3150   51.9630    6.5580 C.3   256  MET256      0.1736
     20  C         68.2390   51.5380    5.1180 C.2   256  MET256      0.2617
     21  O         67.2290   51.7760    4.4440 O.2   256  MET256     -0.2715
     22  CB        68.7420   50.8130    7.4720 C.3   256  MET256      0.0427
     23  CG        67.7680   49.6360    7.5210 C.3   256  MET256      0.0599
     24  SD        68.1670   48.3450    8.7350 S.3   256  MET256     -0.1393
     25  CE        68.2930   49.3210   10.2330 C.3   256  MET256      0.0692
     26  N         69.3150   50.9580    4.6200 N.am  257  GLY257     -0.1940
     27  CA        69.3520   50.5540    3.2300 C.3   257  GLY257      0.2014
     28  C         68.5150   49.3190    3.0180 C.2   257  GLY257      0.2639
     29  O         67.8140   49.2170    2.0190 O.2   257  GLY257     -0.2714
     30  N         68.6250   48.3680    3.9480 N.am  258  ALA258     -0.1963
     31  CA        67.9410   47.0760    3.7990 C.3   258  ALA258      0.1728
     32  C         68.1490   46.2740    5.0650 C.2   258  ALA258      0.2616
     33  O         68.9250   46.6820    5.9340 O.2   258  ALA258     -0.2715
     34  CB        68.4930   46.3330    2.5590 C.3   258  ALA258      0.0334
     35  N         67.4540   45.1410    5.1870 N.am  259  MET259     -0.1963
     36  CA        67.4440   44.4020    6.4410 C.3   259  MET259      0.1736
     37  C         67.2700   42.9150    6.1870 C.2   259  MET259      0.2616
     38  O         66.3640   42.5080    5.4440 O.2   259  MET259     -0.2715
     39  CB        66.3340   44.9400    7.3470 C.3   259  MET259      0.0427
     40  CG        66.1930   44.1800    8.6640 C.3   259  MET259      0.0599
     41  SD        67.6650   44.4150    9.7110 S.3   259  MET259     -0.1393
     42  CE        67.7000   42.8080   10.4970 C.3   259  MET259      0.0692
     43  N         68.1260   42.1290    6.8320 N.am  260  GLU260     -0.1977
     44  CA        68.2470   40.6900    6.5560 C.3   260  GLU260      0.1602
     45  C         67.2310   39.7860    7.2600 C.2   260  GLU260      0.2287
     46  O         67.5590   38.6400    7.5580 O.2   260  GLU260     -0.2864
     47  CB        69.6670   40.2220    6.8980 C.3   260  GLU260      0.0415
     48  CG        70.0160   40.2440    8.4180 C.3   260  GLU260      0.1163
     49  CD        70.6420   41.5480    8.9100 C.2   260  GLU260      0.3649
     50  OE1       71.3310   41.5040    9.9590 O.co2 260  GLU260     -0.2457
     51  OE2       70.4420   42.6070    8.2820 O.co2 260  GLU260     -0.2457
     52  N         67.5970   50.5100   -3.0300 N.3   271  TYR271     -0.1241
     53  CA        68.5110   49.4050   -3.2540 C.3   271  TYR271      0.1605
     54  C         67.8210   48.2240   -3.9270 C.2   271  TYR271      0.2264
     55  O         68.3120   47.0970   -3.8750 O.2   271  TYR271     -0.2867
     56  CB        69.2070   49.0120   -1.9430 C.3   271  TYR271      0.0534
     57  CG        70.1600   50.0830   -1.4650 C.ar  271  TYR271     -0.0201
     58  CD1       71.1990   50.5270   -2.2800 C.ar  271  TYR271     -0.0009
     59  CD2       70.0130   50.6570   -0.2110 C.ar  271  TYR271     -0.0009
     60  CE1       72.0700   51.5130   -1.8570 C.ar  271  TYR271      0.0417
     61  CE2       70.9020   51.6440    0.2270 C.ar  271  TYR271      0.0417
     62  CZ        71.9200   52.0560   -0.6030 C.ar  271  TYR271      0.1957
     63  OH        72.8000   53.0450   -0.1900 O.3   271  TYR271     -0.2866
     64  N         75.4250   45.2200   -4.6310 N.3   289  ARG289     -0.1231
     65  CA        76.1380   45.0240   -3.3910 C.3   289  ARG289      0.1694
     66  C         75.2070   44.8990   -2.1880 C.2   289  ARG289      0.2591
     67  O         75.5280   44.1530   -1.2790 O.2   289  ARG289     -0.2718
     68  CB        77.2060   46.1110   -3.1990 C.3   289  ARG289      0.0321
     69  CG        76.7830   47.3030   -2.4070 C.3   289  ARG289      0.0489
     70  CD        77.9430   48.3110   -2.2940 C.3   289  ARG289      0.2205
     71  NE        78.1000   49.0850   -3.5310 N.pl3 289  ARG289     -0.0865
     72  CZ        79.0750   48.9130   -4.4250 C.cat 289  ARG289      0.5346
     73  NH1       80.0270   47.9990   -4.2380 N.pl3 289  ARG289      0.1354
     74  NH2       79.1130   49.6770   -5.5070 N.pl3 289  ARG289      0.1354
     75  N         74.0770   45.6140   -2.1820 N.am  290  VAL290     -0.1980
     76  CA        73.1580   45.5480   -1.0310 C.3   290  VAL290      0.1595
     77  C         72.3150   44.2770   -1.0840 C.2   290  VAL290      0.2287
     78  O         72.1250   43.6180   -0.0530 O.2   290  VAL290     -0.2864
     79  CB        72.2950   46.8280   -0.9000 C.3   290  VAL290      0.0276
     80  CG1       71.3060   46.7110    0.2560 C.3   290  VAL290      0.0022
     81  CG2       73.2080   48.0360   -0.6650 C.3   290  VAL290      0.0022
     82  N         74.7800   41.8710    0.1830 N.3   293  HIS293     -0.1226
     83  CA        74.9480   42.0520    1.6250 C.3   293  HIS293      0.1752
     84  C         73.8360   41.3450    2.4190 C.2   293  HIS293      0.2595
     85  O         74.1250   40.5720    3.3390 O.2   293  HIS293     -0.2718
     86  CB        74.9430   43.5530    1.9270 C.3   293  HIS293      0.0759
     87  CG        75.2450   43.8950    3.3520 C.ar  293  HIS293      0.0818
     88  ND1       76.5020   44.2760    3.7690 N.ar  293  HIS293     -0.2268
     89  CD2       74.4460   43.9600    4.4430 C.ar  293  HIS293      0.1154
     90  CE1       76.4670   44.5410    5.0650 C.ar  293  HIS293      0.1986
     91  NE2       75.2320   44.3570    5.4980 N.ar  293  HIS293     -0.2212
     92  N         72.5840   41.6120    2.0580 N.am  294  GLU294     -0.1979
     93  CA        71.4660   41.0310    2.8020 C.3   294  GLU294      0.1602
     94  C         71.4680   39.5230    2.6640 C.2   294  GLU294      0.2287
     95  O         71.2430   38.8020    3.6460 O.2   294  GLU294     -0.2864
     96  CB        70.1290   41.6220    2.3620 C.3   294  GLU294      0.0415
     97  CG        70.0660   43.1420    2.5510 C.3   294  GLU294      0.1163
     98  CD        70.4470   43.5970    3.9400 C.2   294  GLU294      0.3649
     99  OE1       70.2190   42.8640    4.9280 O.co2 294  GLU294     -0.2457
    100  OE2       70.9960   44.7080    4.0330 O.co2 294  GLU294     -0.2457
    101  N         78.4380   42.6280   10.9970 N.3   316  GLU316     -0.1245
    102  CA        78.5120   43.7170   10.0130 C.3   316  GLU316      0.1567
    103  C         79.8810   43.8520    9.3560 C.2   316  GLU316      0.2260
    104  O         79.9470   44.0200    8.1330 O.2   316  GLU316     -0.2867
    105  CB        78.0520   45.0530   10.5910 C.3   316  GLU316      0.0388
    106  CG        76.5960   45.0530   11.0540 C.3   316  GLU316      0.1160
    107  CD        75.6120   44.6610    9.9620 C.2   316  GLU316      0.3649
    108  OE1       74.4580   44.3160   10.3050 O.co2 316  GLU316     -0.2457
    109  OE2       75.9640   44.7120    8.7490 O.co2 316  GLU316     -0.2457
    110  N         80.0780   43.0360    5.4680 N.3   320  VAL320     -0.1245
    111  CA        80.6150   44.0590    4.5560 C.3   320  VAL320      0.1561
    112  C         81.8120   43.4850    3.8040 C.2   320  VAL320      0.2260
    113  O         81.9370   43.6850    2.5900 O.2   320  VAL320     -0.2867
    114  CB        81.0120   45.3340    5.3170 C.3   320  VAL320      0.0252
    115  CG1       81.8050   46.2690    4.4000 C.3   320  VAL320      0.0019
    116  CG2       79.7760   46.0540    5.8200 C.3   320  VAL320      0.0019
    117  N         80.3310   41.4350    1.1010 N.3   323  ASP323     -0.1239
    118  CA        79.7710   42.2030   -0.0250 C.3   323  ASP323      0.1674
    119  C         80.8840   42.8340   -0.8680 C.2   323  ASP323      0.2266
    120  O         80.7490   42.9230   -2.0780 O.2   323  ASP323     -0.2867
    121  CB        78.6130   43.1600    0.3710 C.3   323  ASP323      0.1410
    122  CG        79.0720   44.5270    0.9280 C.2   323  ASP323      0.3668
    123  OD1       78.5140   44.9480    1.9770 O.co2 323  ASP323     -0.2456
    124  OD2       79.8840   45.2260    0.2780 O.co2 323  ASP323     -0.2456
    125  N         71.1640   52.3030   18.2260 N.3   369  ASN369     -0.1240
    126  CA        70.9970   52.7250   16.8310 C.3   369  ASN369      0.1653
    127  C         72.0560   53.7430   16.3880 C.2   369  ASN369      0.2266
    128  O         72.2220   53.9910   15.1910 O.2   369  ASN369     -0.2867
    129  CB        69.5730   53.1990   16.5330 C.3   369  ASN369      0.1155
    130  CG        68.5680   52.0420   16.4890 C.2   369  ASN369      0.2627
    131  OD1       68.8960   50.9000   16.1200 O.2   369  ASN369     -0.2716
    132  ND2       67.3330   52.3420   16.8610 N.am  369  ASN369     -0.0877
    133  N         75.5750   51.9650   14.3260 N.3   372  TYR372     -0.1227
    134  CA        75.5750   51.3850   12.9790 C.3   372  TYR372      0.1736
    135  C         76.4790   52.2570   12.1150 C.2   372  TYR372      0.2596
    136  O         76.0260   52.9930   11.2460 O.2   372  TYR372     -0.2718
    137  CB        74.1240   51.2480   12.4620 C.3   372  TYR372      0.0548
    138  CG        73.4710   50.0680   13.1480 C.ar  372  TYR372     -0.0200
    139  CD1       73.0720   50.1620   14.4950 C.ar  372  TYR372     -0.0009
    140  CD2       73.3390   48.8350   12.4970 C.ar  372  TYR372     -0.0009
    141  CE1       72.5230   49.0570   15.1600 C.ar  372  TYR372      0.0417
    142  CE2       72.7820   47.7390   13.1470 C.ar  372  TYR372      0.0417
    143  CZ        72.3790   47.8700   14.4740 C.ar  372  TYR372      0.1957
    144  OH        71.8660   46.7940   15.1420 O.3   372  TYR372     -0.2866
    145  N         77.7790   52.1480   12.3810 N.am  373  THR373     -0.1953
    146  CA        78.7210   53.2150   11.9990 C.3   373  THR373      0.1897
    147  C         79.7360   52.7960   10.9580 C.2   373  THR373      0.2313
    148  O         79.9780   51.6110   10.7260 O.2   373  THR373     -0.2863
    149  CB        79.5250   53.6580   13.2250 C.3   373  THR373      0.1794
    150  OG1       80.1200   52.4980   13.8180 O.3   373  THR373     -0.2208
    151  CG2       78.6200   54.3810   14.2290 C.3   373  THR373      0.0378
    152  N         81.0790   48.9800   10.5640 N.3   377  TYR377     -0.1227
    153  CA        80.9240   48.4250    9.2080 C.3   377  TYR377      0.1736
    154  C         82.2250   48.3820    8.4270 C.2   377  TYR377      0.2595
    155  O         82.7700   47.3010    8.1590 O.2   377  TYR377     -0.2718
    156  CB        79.8710   49.2350    8.4270 C.3   377  TYR377      0.0548
    157  CG        78.4520   48.8540    8.7460 C.ar  377  TYR377     -0.0200
    158  CD1       77.8970   49.1100    9.9990 C.ar  377  TYR377     -0.0009
    159  CD2       77.6590   48.2340    7.7780 C.ar  377  TYR377     -0.0009
    160  CE1       76.5830   48.7230   10.2930 C.ar  377  TYR377      0.0417
    161  CE2       76.3570   47.8610    8.0540 C.ar  377  TYR377      0.0417
    162  CZ        75.8320   48.1080    9.3150 C.ar  377  TYR377      0.1957
    163  OH        74.5410   47.7280    9.6040 O.3   377  TYR377     -0.2866
    164  N         82.7270   49.5670    8.0670 N.am  378  GLU378     -0.1979
    165  CA        83.8700   49.6490    7.1630 C.3   378  GLU378      0.1602
    166  C         85.2040   49.3360    7.8350 C.2   378  GLU378      0.2287
    167  O         85.9970   48.5610    7.2940 O.2   378  GLU378     -0.2864
    168  CB        83.9060   51.0020    6.4510 C.3   378  GLU378      0.0415
    169  CG        83.0480   51.0560    5.1910 C.3   378  GLU378      0.1163
    170  CD        81.5880   51.4240    5.4240 C.2   378  GLU378      0.3649
    171  OE1       81.1860   51.7030    6.5800 O.co2 378  GLU378     -0.2457
    172  OE2       80.8420   51.4520    4.4140 O.co2 378  GLU378     -0.2457
    173  N         66.2040   58.4420   14.6590 N.3   817  GLN817     -0.1245
    174  CA        67.3020   57.7590   13.9590 C.3   817  GLN817      0.1566
    175  C         67.8100   58.6140   12.8070 C.2   817  GLN817      0.2260
    176  O         69.0170   58.7740   12.6320 O.2   817  GLN817     -0.2867
    177  CB        66.8620   56.4000   13.4230 C.3   817  GLN817      0.0367
    178  CG        67.1040   55.2960   14.3700 C.3   817  GLN817      0.0905
    179  CD        66.7010   53.9740   13.7590 C.2   817  GLN817      0.2608
    180  OE1       67.5410   53.2310   13.2320 O.2   817  GLN817     -0.2717
    181  NE2       65.4120   53.6830   13.8060 N.am  817  GLN817     -0.0878
    182  N         71.5560   60.6370   12.3550 N.3   821  ARG821     -0.1245
    183  CA        72.4360   60.6120   11.1780 C.3   821  ARG821      0.1563
    184  C         72.7670   62.0350   10.7570 C.2   821  ARG821      0.2260
    185  O         73.9180   62.3530   10.4090 O.2   821  ARG821     -0.2867
    186  CB        71.7830   59.8670   10.0100 C.3   821  ARG821      0.0307
    187  CG        71.7140   58.3790   10.1960 C.3   821  ARG821      0.0489
    188  CD        71.3450   57.6930    8.8750 C.3   821  ARG821      0.2205
    189  NE        72.5200   57.4080    8.0510 N.pl3 821  ARG821     -0.0865
    190  CZ        72.4750   56.8430    6.8440 C.cat 821  ARG821      0.5346
    191  NH1       71.3070   56.5030    6.3000 N.pl3 821  ARG821      0.1354
    192  NH2       73.6020   56.6160    6.1760 N.pl3 821  ARG821      0.1354
@<TRIPOS>BOND
     1    74    72    1
     2    64    65    1
     3    72    73    1
     4    72    71    2
     5    54    55    2
     6    54    53    1
     7    71    70    1
     8    65    68    1
     9    65    66    1
    10    53    52    1
    11    53    56    1
    12    68    69    1
    13    69    70    1
    14    58    60   ar
    15    58    57   ar
    16    66    75   am
    17    66    67    2
    18    75    76    1
    19   120   119    2
    20    56    57    1
    21    60    62   ar
    22    57    59   ar
    23    77    76    1
    24    77    78    2
    25    76    79    1
    26    79    81    1
    27    79    80    1
    28   119   118    1
    29    62    63    1
    30    62    61   ar
    31    59    61   ar
    32   118   121    1
    33   118   117    1
    34    82    83    1
    35   124   122   ar
    36   121   122    1
    37   122   123   ar
    38    83    86    1
    39    83    84    1
    40    86    87    1
    41    29    28    2
    42    92    84   am
    43    92    93    1
    44    96    97    1
    45    96    93    1
    46    84    85    2
    47    97    98    1
    48    34    31    1
    49   113   112    2
    50    94    93    1
    51    94    95    2
    52    28    27    1
    53    28    30   am
    54    27    26    1
    55    87    88   ar
    56    87    89   ar
    57    88    90   ar
    58    31    30    1
    59    31    32    1
    60   112   111    1
    61    98   100   ar
    62    98    99   ar
    63   115   114    1
    64   172   170   ar
    65    89    91   ar
    66    21    20    2
    67   111   114    1
    68   111   110    1
    69    26    20   am
    70    32    35   am
    71    32    33    2
    72    90    91   ar
    73    20    19    1
    74    35    36    1
    75   169   170    1
    76   169   168    1
    77   114   116    1
    78   170   171   ar
    79    38    37    2
    80   192   190    1
    81    37    36    1
    82    37    43   am
    83   191   190    1
    84    36    39    1
    85   168   165    1
    86    44    43    1
    87    44    47    1
    88    44    45    1
    89    19    18    1
    90    19    22    1
    91   190   189    2
    92    47    48    1
    93    18    12   am
    94   165   166    1
    95   165   164    1
    96    45    46    2
    97   167   166    2
    98    39    40    1
    99    10    11    1
   100    22    23    1
   101    23    24    1
   102    12    11    1
   103    12    13    2
   104   159   161   ar
   105   159   157   ar
   106    11    14    1
   107   189   188    1
   108   161   162   ar
   109   164   154   am
   110   104   103    2
   111   155   154    2
   112    51    49   ar
   113    48    49    1
   114   154   153    1
   115   156   157    1
   116   156   153    1
   117    40    41    1
   118    24    25    1
   119   157   158   ar
   120   109   107   ar
   121   188   187    1
   122    49    50   ar
   123   153   152    1
   124    16    15    2
   125   162   163    1
   126   162   160   ar
   127   103   102    1
   128    14    15    1
   129    41    42    1
   130   107   108   ar
   131   107   106    1
   132   158   160   ar
   133    15    17   am
   134   186   187    1
   135   186   183    1
   136   102   105    1
   137   102   101    1
   138   185   184    2
   139   105   106    1
   140   148   147    2
   141   184   183    1
   142   147   146    1
   143   183   182    1
   144   136   135    2
   145     9     7   ar
   146   146   145    1
   147   146   149    1
   148   135   145   am
   149   135   134    1
   150   137   134    1
   151   137   138    1
   152   140   142   ar
   153   140   138   ar
   154   176   175    2
   155   175   174    1
   156     7     8   ar
   157     7     6    1
   158   134   133    1
   159   142   143   ar
   160   138   139   ar
   161   149   150    1
   162   149   151    1
   163   180   179    2
   164     5     6    1
   165     5     2    1
   166   177   174    1
   167   177   178    1
   168   179   181   am
   169   179   178    1
   170     1     2    1
   171   174   173    1
   172     4     3    2
   173     2     3    1
   174   143   144    1
   175   143   141   ar
   176   139   141   ar
   177   128   127    2
   178   131   130    2
   179   127   126    1
   180   130   129    1
   181   130   132   am
   182   129   126    1
   183   126   125    1
