@<TRIPOS>MOLECULE
tmp/2zxuA00.pdb
 142 133 0 0 0
SMALL
GASTEIGER

@<TRIPOS>ATOM
      1  N         14.0150   54.0710   88.9720 N.3    10  PRO10      -0.2102
      2  CA        14.1720   54.2850   87.5270 C.3    10  PRO10       0.1504
      3  C         12.9490   53.8170   86.7340 C.2    10  PRO10       0.2576
      4  O         11.9880   53.2670   87.3420 O.2    10  PRO10      -0.2718
      5  CB        15.3990   53.4610   87.1870 C.3    10  PRO10       0.0282
      6  CG        15.3660   52.3540   88.1800 C.3    10  PRO10       0.0208
      7  CD        14.9600   53.0420   89.4530 C.3    10  PRO10       0.0893
      8  N         13.0350   53.9420   85.4020 N.am   11  THR11      -0.1939
      9  CA        11.9440   53.6160   84.5290 C.3    11  THR11       0.2028
     10  C         11.7350   52.1250   84.4530 C.2    11  THR11       0.2642
     11  O         12.7070   51.3670   84.4720 O.2    11  THR11      -0.2714
     12  CB        12.2020   54.2670   83.1790 C.3    11  THR11       0.1808
     13  OG1       11.0500   54.1120   82.3420 O.3    11  THR11      -0.2208
     14  CG2       13.3910   53.5510   82.4690 C.3    11  THR11       0.0379
     15  N         10.4660   51.7030   84.4240 N.am   12  ALA12      -0.1963
     16  CA        10.1260   50.2700   84.3810 C.3    12  ALA12       0.1728
     17  C         10.4770   49.4860   85.6320 C.2    12  ALA12       0.2617
     18  O         10.7480   48.2780   85.5900 O.2    12  ALA12      -0.2715
     19  CB        10.7620   49.5960   83.1680 C.3    12  ALA12       0.0334
     20  N         10.4040   50.1650   86.7630 N.am   13  SER13      -0.1936
     21  CA        10.7270   49.5440   88.0330 C.3    13  SER13       0.2055
     22  C          9.4840   49.2740   88.8590 C.2    13  SER13       0.2644
     23  O          9.5800   48.8530   89.9980 O.2    13  SER13      -0.2714
     24  CB        11.7020   50.4280   88.8050 C.3    13  SER13       0.2130
     25  OG        11.0500   51.5580   89.3570 O.3    13  SER13      -0.2179
     26  N          8.3200   49.5120   88.2700 N.am   14  GLY14      -0.1939
     27  CA         7.0710   49.2510   88.9590 C.3    14  GLY14       0.2014
     28  C          6.6050   50.2370   90.0110 C.2    14  GLY14       0.2639
     29  O          5.7720   49.8980   90.8460 O.2    14  GLY14      -0.2714
     30  N          7.1180   51.4590   89.9720 N.am   15  LYS15      -0.1963
     31  CA         6.7360   52.4940   90.9320 C.3    15  LYS15       0.1728
     32  C          5.2440   52.7950   90.9570 C.2    15  LYS15       0.2616
     33  O          4.6470   52.9140   92.0240 O.2    15  LYS15      -0.2715
     34  CB         7.4630   53.7910   90.6100 C.3    15  LYS15       0.0311
     35  CG         8.8660   53.8480   91.0990 C.3    15  LYS15       0.0038
     36  CD         9.5580   55.0800   90.5540 C.3    15  LYS15       0.0206
     37  CE         9.8710   54.9190   89.0750 C.3    15  LYS15       0.1093
     38  NZ         9.0630   55.8250   88.2530 N.3    15  LYS15      -0.1314
     39  N          4.6530   52.9500   89.7770 N.am   16  THR16      -0.1951
     40  CA         3.2310   53.2550   89.6760 C.3    16  THR16       0.1897
     41  C          2.4030   52.1380   90.2730 C.2    16  THR16       0.2313
     42  O          1.4950   52.3820   91.0620 O.2    16  THR16      -0.2863
     43  CB         2.8160   53.4560   88.2110 C.3    16  THR16       0.1794
     44  OG1        3.6070   54.5050   87.6410 O.3    16  THR16      -0.2208
     45  CG2        1.3470   53.8330   88.1120 C.3    16  THR16       0.0378
     46  N          7.1000   63.6370   87.5000 N.3    34  ASP34      -0.1239
     47  CA         7.6110   63.2150   86.2060 C.3    34  ASP34       0.1674
     48  C          7.5450   64.3570   85.1930 C.2    34  ASP34       0.2266
     49  O          6.4640   64.8270   84.8380 O.2    34  ASP34      -0.2867
     50  CB         6.7860   62.0230   85.7270 C.3    34  ASP34       0.1410
     51  CG         7.2890   61.4480   84.4230 C.2    34  ASP34       0.3668
     52  OD1        7.4200   60.2070   84.3580 O.co2  34  ASP34      -0.2456
     53  OD2        7.5390   62.2270   83.4700 O.co2  34  ASP34      -0.2456
     54  N          5.1100   63.2810   82.2360 N.3    37  LEU37      -0.1245
     55  CA         3.7160   62.9560   82.5230 C.3    37  LEU37       0.1561
     56  C          2.8470   64.2060   82.6760 C.2    37  LEU37       0.2260
     57  O          1.6280   64.1190   82.8360 O.2    37  LEU37      -0.2867
     58  CB         3.6280   62.0950   83.7890 C.3    37  LEU37       0.0270
     59  CG         4.1990   60.6760   83.6580 C.3    37  LEU37       0.0019
     60  CD1        4.0270   59.9400   84.9580 C.3    37  LEU37       0.0001
     61  CD2        3.4930   59.9240   82.5250 C.3    37  LEU37       0.0001
     62  N          3.8500   56.7920   75.3440 N.3    45  GLY45      -0.1210
     63  CA         5.3020   56.7920   75.4120 C.3    45  GLY45       0.1956
     64  C          5.8360   57.1840   76.7890 C.2    45  GLY45       0.2613
     65  O          6.9860   56.9150   77.1330 O.2    45  GLY45      -0.2717
     66  N          4.9940   57.8190   77.5960 N.am   46  THR46      -0.1938
     67  CA         5.4200   58.2530   78.9150 C.3    46  THR46       0.2028
     68  C          5.0240   57.2380   79.9690 C.2    46  THR46       0.2642
     69  O          5.3530   57.3870   81.1460 O.2    46  THR46      -0.2714
     70  CB         4.7950   59.5900   79.2670 C.3    46  THR46       0.1808
     71  OG1        3.3750   59.4280   79.3380 O.3    46  THR46      -0.2208
     72  CG2        5.1370   60.6440   78.1990 C.3    46  THR46       0.0379
     73  N          4.3110   56.2040   79.5350 N.am   47  ALA47      -0.1977
     74  CA         3.8620   55.1380   80.4280 C.3    47  ALA47       0.1597
     75  C          2.9370   55.6990   81.4760 C.2    47  ALA47       0.2287
     76  O          2.9650   55.2980   82.6330 O.2    47  ALA47      -0.2864
     77  CB         5.0450   54.4790   81.0930 C.3    47  ALA47       0.0319
     78  N         10.2040   59.3370   88.5710 N.3    99  GLY99      -0.1225
     79  CA        11.5930   59.0430   88.2730 C.3    99  GLY99       0.1811
     80  C         12.3840   60.2960   87.9410 C.2    99  GLY99       0.2280
     81  O         13.4870   60.2140   87.3990 O.2    99  GLY99      -0.2866
     82  N          9.0330   46.7740   77.3400 N.3   209  ARG209     -0.1231
     83  CA         8.0600   47.8370   77.5070 C.3   209  ARG209      0.1694
     84  C          7.9830   48.7130   76.2660 C.2   209  ARG209      0.2592
     85  O          6.8930   49.0920   75.8260 O.2   209  ARG209     -0.2718
     86  CB         8.3550   48.7230   78.7110 C.3   209  ARG209      0.0321
     87  CG         7.1940   49.6410   78.9060 C.3   209  ARG209      0.0489
     88  CD         7.4810   50.7310   79.9170 C.3   209  ARG209      0.2205
     89  NE         6.8950   50.4850   81.1900 N.pl3 209  ARG209     -0.0865
     90  CZ         6.6080   51.4630   82.0550 C.cat 209  ARG209      0.5346
     91  NH1        6.8940   52.7240   81.6890 N.pl3 209  ARG209      0.1354
     92  NH2        6.1120   51.2290   83.2940 N.pl3 209  ARG209      0.1354
     93  N          9.1390   49.0150   75.6840 N.am  210  PHE210     -0.1976
     94  CA         9.1610   49.8580   74.5090 C.3   210  PHE210      0.1639
     95  C          8.3500   49.2320   73.3900 C.2   210  PHE210      0.2290
     96  O          7.6730   49.9440   72.6400 O.2   210  PHE210     -0.2864
     97  CB        10.5910   50.1120   74.0430 C.3   210  PHE210      0.0560
     98  CG        10.7170   51.2720   73.1060 C.ar  210  PHE210     -0.0200
     99  CD1       10.5220   52.5690   73.5680 C.ar  210  PHE210     -0.0042
    100  CD2       10.9390   51.0710   71.7490 C.ar  210  PHE210     -0.0042
    101  CE1       10.5700   53.6580   72.7010 C.ar  210  PHE210     -0.0003
    102  CE2       10.9890   52.1560   70.8710 C.ar  210  PHE210     -0.0003
    103  CZ        10.7890   53.4520   71.3490 C.ar  210  PHE210     -0.0000
    104  N          4.5820   49.5550   73.9240 N.3   213  MET213     -0.1245
    105  CA         4.1220   50.8860   73.5200 C.3   213  MET213      0.1570
    106  C          3.8890   50.9610   72.0060 C.2   213  MET213      0.2261
    107  O          2.8200   51.3810   71.5570 O.2   213  MET213     -0.2867
    108  CB         5.1280   51.9590   73.9360 C.3   213  MET213      0.0387
    109  CG         5.3400   52.0880   75.4230 C.3   213  MET213      0.0595
    110  SD         6.8030   53.1600   75.7830 S.3   213  MET213     -0.1393
    111  CE         6.6380   53.2840   77.5360 C.3   213  MET213      0.0692
    112  N         12.4070   60.6480   75.8620 N.3   241  VAL241     -0.1245
    113  CA        12.7850   59.3280   75.3770 C.3   241  VAL241      0.1561
    114  C         11.6390   58.7060   74.5690 C.2   241  VAL241      0.2260
    115  O         10.4770   58.7030   75.0110 O.2   241  VAL241     -0.2867
    116  CB        13.1080   58.4060   76.5700 C.3   241  VAL241      0.0252
    117  CG1       13.4000   57.0210   76.0810 C.3   241  VAL241      0.0019
    118  CG2       14.2920   58.9680   77.3560 C.3   241  VAL241      0.0019
    119  N         16.3590   54.9020   76.4410 N.3   267  THR267     -0.1218
    120  CA        15.6560   54.6180   77.6770 C.3   267  THR267      0.1862
    121  C         16.5990   53.9780   78.6950 C.2   267  THR267      0.2287
    122  O         16.5150   54.2540   79.8930 O.2   267  THR267     -0.2866
    123  CB        14.4590   53.6910   77.4070 C.3   267  THR267      0.1770
    124  OG1       13.6540   54.2560   76.3590 O.3   267  THR267     -0.2211
    125  CG2       13.6200   53.5090   78.6670 C.3   267  THR267      0.0375
    126  N         18.8330   56.5220   80.1460 N.3   270  LEU270     -0.1245
    127  CA        18.0470   57.3180   81.0890 C.3   270  LEU270      0.1561
    128  C         18.0580   56.6090   82.4360 C.2   270  LEU270      0.2260
    129  O         18.3340   57.2270   83.4680 O.2   270  LEU270     -0.2867
    130  CB        16.5850   57.4880   80.6080 C.3   270  LEU270      0.0270
    131  CG        15.4770   57.5590   81.6920 C.3   270  LEU270      0.0019
    132  CD1       15.7200   58.7150   82.6590 C.3   270  LEU270      0.0001
    133  CD2       14.1130   57.7170   81.0520 C.3   270  LEU270      0.0001
    134  N         19.3470   57.6620   86.2580 N.3   274  GLN274     -0.1245
    135  CA        18.4130   57.6870   87.3700 C.3   274  GLN274      0.1566
    136  C         19.0210   56.9190   88.5270 C.2   274  GLN274      0.2260
    137  O         18.8930   57.3000   89.6920 O.2   274  GLN274     -0.2867
    138  CB        17.0820   57.0550   86.9640 C.3   274  GLN274      0.0367
    139  CG        16.2440   57.9140   86.0420 C.3   274  GLN274      0.0905
    140  CD        15.0040   57.1980   85.5650 C.2   274  GLN274      0.2608
    141  OE1       15.0970   56.1820   84.8740 O.2   274  GLN274     -0.2717
    142  NE2       13.8320   57.7130   85.9370 N.am  274  GLN274     -0.0878
@<TRIPOS>BOND
     1   102   103   ar
     2   102   100   ar
     3   103   101   ar
     4   107   106    2
     5   100    98   ar
     6   106   105    1
     7    96    95    2
     8   101    99   ar
     9    98    99   ar
    10    98    97    1
    11    95    94    1
    12   105   104    1
    13   105   108    1
    14   108   109    1
    15    97    94    1
    16    94    93    1
    17   114   115    2
    18   114   113    1
    19    62    63    1
    20   113   112    1
    21   113   116    1
    22    63    64    1
    23   109   110    1
    24    93    84   am
    25   110   111    1
    26    85    84    2
    27   117   116    1
    28    84    83    1
    29   124   123    1
    30   119   120    1
    31   116   118    1
    32    64    65    2
    33    64    66   am
    34    82    83    1
    35   123   120    1
    36   123   125    1
    37    83    86    1
    38    66    67    1
    39   120   121    1
    40    72    70    1
    41   121   122    2
    42    86    87    1
    43    87    88    1
    44    67    70    1
    45    67    68    1
    46    70    71    1
    47    73    68   am
    48    73    74    1
    49    88    89    1
    50    68    69    2
    51   126   127    1
    52    74    77    1
    53    74    75    1
    54   130   127    1
    55   130   131    1
    56   133   131    1
    57   127   128    1
    58    89    90    2
    59    75    76    2
    60    91    90    1
    61   131   132    1
    62    90    92    1
    63    54    55    1
    64    13    12    1
    65   128   129    2
    66    14    12    1
    67    55    56    1
    68    55    58    1
    69    61    59    1
    70    56    57    2
    71    19    16    1
    72    12     9    1
    73    53    51   ar
    74    59    58    1
    75    59    60    1
    76    52    51   ar
    77    16    15    1
    78    16    17    1
    79    51    50    1
    80    15    10   am
    81    10    11    2
    82    10     9    1
    83     9     8    1
    84    49    48    2
    85   141   140    2
    86    48    47    1
    87     8     3   am
    88   140   142   am
    89   140   139    1
    90    18    17    2
    91    17    20   am
    92    50    47    1
    93   139   138    1
    94    47    46    1
    95   134   135    1
    96     3     4    2
    97     3     2    1
    98    20    21    1
    99   138   135    1
   100     5     2    1
   101     5     6    1
   102   135   136    1
   103    81    80    2
   104     2     1    1
   105    44    43    1
   106    80    79    1
   107    21    24    1
   108    21    22    1
   109    45    43    1
   110     6     7    1
   111    43    40    1
   112    38    37    1
   113    26    22   am
   114    26    27    1
   115    79    78    1
   116   136   137    2
   117    24    25    1
   118    22    23    2
   119    27    28    1
   120     1     7    1
   121    37    36    1
   122    40    39    1
   123    40    41    1
   124    39    32   am
   125    30    28   am
   126    30    31    1
   127    28    29    2
   128    41    42    2
   129    36    35    1
   130    34    31    1
   131    34    35    1
   132    31    32    1
   133    32    33    2
