@<TRIPOS>MOLECULE
tmp/2zxwP03.pdb
 89 83 0 0 0
SMALL
GASTEIGER

@<TRIPOS>ATOM
      1  N        124.7170  290.2170  194.8500 N.3    25  MET25      -0.1245
      2  CA       123.5750  290.3620  193.9550 C.3    25  MET25       0.1570
      3  C        123.8520  291.1270  192.6600 C.2    25  MET25       0.2261
      4  O        123.3040  290.7590  191.6160 O.2    25  MET25      -0.2867
      5  CB       122.3760  290.9760  194.6590 C.3    25  MET25       0.0387
      6  CG       121.8170  290.0610  195.7230 C.3    25  MET25       0.0595
      7  SD       120.3520  290.7020  196.5910 S.3    25  MET25      -0.1393
      8  CE       120.8820  292.2690  197.1770 C.3    25  MET25       0.0692
      9  N        124.0140  289.6990  189.0000 N.3    29  LEU29      -0.1245
     10  CA       123.2030  290.0690  187.8560 C.3    29  LEU29       0.1561
     11  C        124.0870  290.2360  186.6400 C.2    29  LEU29       0.2260
     12  O        123.7230  289.8030  185.5420 O.2    29  LEU29      -0.2867
     13  CB       122.4400  291.3330  188.1170 C.3    29  LEU29       0.0270
     14  CG       121.2850  291.0480  189.0480 C.3    29  LEU29       0.0019
     15  CD1      120.6300  292.3890  189.5550 C.3    29  LEU29       0.0001
     16  CD2      120.3010  290.1250  188.3510 C.3    29  LEU29       0.0001
     17  N        124.9480  286.9080  185.2830 N.3    32  TRP32      -0.1241
     18  CA       123.8200  286.2840  184.6280 C.3    32  TRP32       0.1605
     19  C        123.5790  286.9350  183.2580 C.2    32  TRP32       0.2264
     20  O        123.3770  286.2080  182.2540 O.2    32  TRP32      -0.2867
     21  CB       122.5910  286.3300  185.5140 C.3    32  TRP32       0.0550
     22  CG       121.3330  285.7020  184.9730 C.ar   32  TRP32       0.0003
     23  CD1      121.2010  284.4690  184.4050 C.ar   32  TRP32       0.0946
     24  CD2      120.0070  286.2460  185.0560 C.ar   32  TRP32       0.0152
     25  NE1      119.8770  284.2280  184.0970 N.ar   32  TRP32      -0.2442
     26  CE2      119.1270  285.3020  184.4840 C.ar   32  TRP32       0.0810
     27  CE3      119.4860  287.4460  185.5390 C.ar   32  TRP32       0.0012
     28  CZ2      117.7580  285.5120  184.3910 C.ar   32  TRP32       0.0191
     29  CZ3      118.1350  287.6590  185.4400 C.ar   32  TRP32       0.0001
     30  CH2      117.2760  286.6800  184.8720 C.ar   32  TRP32       0.0015
     31  N        126.3910  284.2580  181.2920 N.3    36  ASN36      -0.1240
     32  CA       125.4650  283.1850  181.4250 C.3    36  ASN36       0.1653
     33  C        125.6940  282.2720  182.6520 C.2    36  ASN36       0.2266
     34  O        126.0540  281.1080  182.5000 O.2    36  ASN36      -0.2867
     35  CB       125.5270  282.3610  180.1350 C.3    36  ASN36       0.1155
     36  CG       124.2960  281.4840  179.9480 C.2    36  ASN36       0.2627
     37  OD1      123.1690  281.8880  180.2820 O.2    36  ASN36      -0.2716
     38  ND2      124.5030  280.2760  179.4220 N.am   36  ASN36      -0.0877
     39  N        124.2480  281.7390  187.1300 N.3    38  MET38      -0.1245
     40  CA       123.4640  282.2170  188.2670 C.3    38  MET38       0.1570
     41  C        124.1130  282.0340  189.6000 C.2    38  MET38       0.2261
     42  O        123.5340  282.3880  190.6160 O.2    38  MET38      -0.2867
     43  CB       122.1000  281.5590  188.2970 C.3    38  MET38       0.0387
     44  CG       121.2850  281.9890  187.1260 C.3    38  MET38       0.0595
     45  SD       119.5730  281.5800  187.3610 S.3    38  MET38      -0.1393
     46  CE       119.5740  279.7880  187.1370 C.3    38  MET38       0.0692
     47  N        124.5860  285.3180  191.7520 N.3    41  LEU41      -0.1231
     48  CA       123.2450  285.8000  192.0160 C.3    41  LEU41       0.1693
     49  C        122.5290  284.9570  193.0640 C.2    41  LEU41       0.2591
     50  O        121.8930  285.5310  193.9640 O.2    41  LEU41      -0.2718
     51  CB       122.4140  285.9430  190.7230 C.3    41  LEU41       0.0284
     52  CG       120.9500  286.4090  190.8500 C.3    41  LEU41       0.0019
     53  CD1      120.8050  287.7640  191.5370 C.3    41  LEU41       0.0001
     54  CD2      120.2990  286.4660  189.4920 C.3    41  LEU41       0.0001
     55  N        122.6110  283.6220  192.9490 N.am   42  MET42      -0.1979
     56  CA       121.9940  282.7290  193.9550 C.3    42  MET42       0.1605
     57  C        122.5500  282.9780  195.3500 C.2    42  MET42       0.2287
     58  O        121.8020  282.9980  196.3220 O.2    42  MET42      -0.2864
     59  CB       122.1420  281.2260  193.6140 C.3    42  MET42       0.0413
     60  CG       121.1820  280.6760  192.5370 C.3    42  MET42       0.0598
     61  SD       119.5330  281.5470  192.4520 S.3    42  MET42      -0.1393
     62  CE       119.6460  282.8180  191.1500 C.3    42  MET42       0.0692
     63  N        121.4660  286.5480  196.8230 N.3    45  LEU45      -0.1245
     64  CA       120.0740  286.4140  197.2280 C.3    45  LEU45       0.1561
     65  C        119.9830  285.7140  198.5710 C.2    45  LEU45       0.2260
     66  O        119.2540  286.1880  199.4540 O.2    45  LEU45      -0.2867
     67  CB       119.2490  285.6900  196.1550 C.3    45  LEU45       0.0270
     68  CG       118.9750  286.5370  194.8880 C.3    45  LEU45       0.0019
     69  CD1      118.4740  285.6820  193.7080 C.3    45  LEU45       0.0001
     70  CD2      118.0250  287.7400  195.1520 C.3    45  LEU45       0.0001
     71  N        107.5050  296.5460  189.4880 N.3   201  PHE201     -0.1241
     72  CA       108.0150  297.0320  190.8000 C.3   201  PHE201      0.1605
     73  C        106.8550  297.1770  191.8170 C.2   201  PHE201      0.2264
     74  O        106.9980  296.9080  193.0220 O.2   201  PHE201     -0.2867
     75  CB       108.7760  298.3510  190.6520 C.3   201  PHE201      0.0534
     76  CG       110.2520  298.1830  190.2860 C.ar  201  PHE201     -0.0203
     77  CD1      111.1410  297.6160  191.1900 C.ar  201  PHE201     -0.0042
     78  CD2      110.7410  298.6420  189.0460 C.ar  201  PHE201     -0.0042
     79  CE1      112.5010  297.4960  190.9020 C.ar  201  PHE201     -0.0003
     80  CE2      112.0610  298.4800  188.6980 C.ar  201  PHE201     -0.0003
     81  CZ       112.9790  297.8940  189.6370 C.ar  201  PHE201     -0.0000
     82  N        106.2860  293.6820  193.0240 N.3   204  LEU204     -0.1245
     83  CA       107.3790  293.4440  193.9930 C.3   204  LEU204      0.1561
     84  C        107.0830  294.0590  195.3960 C.2   204  LEU204      0.2260
     85  O        107.2030  293.3750  196.4230 O.2   204  LEU204     -0.2867
     86  CB       108.7330  293.9290  193.4460 C.3   204  LEU204      0.0270
     87  CG       109.9160  293.8310  194.4150 C.3   204  LEU204      0.0019
     88  CD1      110.3200  292.3620  194.7560 C.3   204  LEU204      0.0001
     89  CD2      111.1240  294.5680  193.8720 C.3   204  LEU204      0.0001
@<TRIPOS>BOND
     1    38    36   am
     2    36    35    1
     3    36    37    2
     4    35    32    1
     5    31    32    1
     6    32    33    1
     7    20    19    2
     8    34    33    2
     9    19    18    1
    10    25    23   ar
    11    25    26   ar
    12    28    26   ar
    13    28    30   ar
    14    23    22   ar
    15    26    24   ar
    16    18    17    1
    17    18    21    1
    18    30    29   ar
    19    22    24   ar
    20    22    21    1
    21    24    27   ar
    22    29    27   ar
    23    12    11    2
    24    11    10    1
    25    44    45    1
    26    44    43    1
    27    39    40    1
    28    46    45    1
    29    10    13    1
    30    10     9    1
    31    13    14    1
    32    40    43    1
    33    40    41    1
    34    16    14    1
    35    80    78   ar
    36    80    81   ar
    37    78    76   ar
    38    14    15    1
    39    71    72    1
    40    54    52    1
    41    41    42    2
    42    81    79   ar
    43    76    75    1
    44    76    77   ar
    45    75    72    1
    46    51    52    1
    47    51    48    1
    48    72    73    1
    49    52    53    1
    50    79    77   ar
    51    62    61    1
    52     4     3    2
    53    47    48    1
    54    73    74    2
    55    48    49    1
    56    61    60    1
    57    60    59    1
    58     3     2    1
    59    55    49   am
    60    55    56    1
    61    82    83    1
    62    49    50    2
    63    86    83    1
    64    86    87    1
    65    59    56    1
    66    69    68    1
    67    89    87    1
    68     2     5    1
    69     2     1    1
    70    56    57    1
    71    83    84    1
    72    87    88    1
    73     5     6    1
    74    68    70    1
    75    68    67    1
    76    57    58    2
    77    84    85    2
    78     6     7    1
    79    67    64    1
    80     7     8    1
    81    63    64    1
    82    64    65    1
    83    65    66    2
