@<TRIPOS>MOLECULE
tmp/2zxzA01.pdb
 195 185 0 0 0
SMALL
GASTEIGER

@<TRIPOS>ATOM
      1  N         63.0000   38.3810   35.4020 N.3    20  VAL20      -0.1245
      2  CA        63.4510   38.9980   34.1510 C.3    20  VAL20       0.1561
      3  C         62.9150   38.2480   32.9260 C.2    20  VAL20       0.2260
      4  O         62.5830   38.8630   31.9060 O.2    20  VAL20      -0.2867
      5  CB        64.9970   39.1210   34.1070 C.3    20  VAL20       0.0252
      6  CG1       65.4980   39.3660   32.6930 C.3    20  VAL20       0.0019
      7  CG2       65.4620   40.2370   35.0250 C.3    20  VAL20       0.0019
      8  N         59.3700   39.3250   32.5960 N.3    23  ILE23      -0.1231
      9  CA        59.2780   40.7070   32.1130 C.3    23  ILE23       0.1692
     10  C         59.5550   40.7810   30.6070 C.2    23  ILE23       0.2592
     11  O         58.9300   41.5680   29.8930 O.2    23  ILE23      -0.2718
     12  CB        60.1980   41.6690   32.9250 C.3    23  ILE23       0.0266
     13  CG1       59.7250   41.7540   34.3810 C.3    23  ILE23       0.0019
     14  CG2       60.2080   43.0700   32.3180 C.3    23  ILE23       0.0020
     15  CD1       60.7270   42.3740   35.3450 C.3    23  ILE23       0.0001
     16  N         60.4800   39.9470   30.1340 N.am   24  CYS24      -0.1970
     17  CA        60.8130   39.8680   28.7110 C.3    24  CYS24       0.1712
     18  C         59.7210   39.1740   27.9030 C.2    24  CYS24       0.2296
     19  O         59.5140   39.4830   26.7260 O.2    24  CYS24      -0.2864
     20  CB        62.1420   39.1430   28.5110 C.3    24  CYS24       0.0983
     21  SG        63.5760   40.1440   28.8890 S.3    24  CYS24      -0.0798
     22  N         56.5300   39.4250   28.7270 N.3    26  ALA26      -0.1231
     23  CA        55.5470   40.5040   28.6390 C.3    26  ALA26       0.1694
     24  C         55.9280   41.5560   27.5940 C.2    26  ALA26       0.2591
     25  O         55.0570   42.1670   26.9740 O.2    26  ALA26      -0.2718
     26  CB        55.3590   41.1530   29.9990 C.3    26  ALA26       0.0304
     27  N         57.2310   41.7550   27.4070 N.am   27  ALA27      -0.1980
     28  CA        57.7540   42.7270   26.4480 C.3    27  ALA27       0.1597
     29  C         57.4340   42.3280   25.0110 C.2    27  ALA27       0.2287
     30  O         56.9740   43.1520   24.2190 O.2    27  ALA27      -0.2864
     31  CB        59.2560   42.8920   26.6310 C.3    27  ALA27       0.0319
     32  N         53.7610   42.6140   24.0860 N.3    30  GLN30      -0.1245
     33  CA        53.3540   44.0020   23.9090 C.3    30  GLN30       0.1566
     34  C         53.8720   44.6340   22.6260 C.2    30  GLN30       0.2260
     35  O         53.3080   45.6240   22.1520 O.2    30  GLN30      -0.2867
     36  CB        53.7590   44.8420   25.1240 C.3    30  GLN30       0.0367
     37  CG        52.9060   44.5760   26.3570 C.3    30  GLN30       0.0905
     38  CD        51.4190   44.5540   26.0480 C.2    30  GLN30       0.2608
     39  OE1       50.8210   43.4870   25.9060 O.2    30  GLN30      -0.2717
     40  NE2       50.8200   45.7320   25.9270 N.am   30  GLN30      -0.0878
     41  N         60.3680   52.0680   20.5720 N.3    60  TRP60      -0.1227
     42  CA        59.6450   50.9330   21.1620 C.3    60  TRP60       0.1737
     43  C         59.8330   50.7800   22.6800 C.2    60  TRP60       0.2595
     44  O         58.8750   50.4990   23.3950 O.2    60  TRP60      -0.2718
     45  CB        59.9480   49.6190   20.4200 C.3    60  TRP60       0.0564
     46  CG        61.3490   49.1000   20.5820 C.ar   60  TRP60       0.0003
     47  CD1       62.4570   49.5140   19.9090 C.ar   60  TRP60       0.0946
     48  CD2       61.7830   48.0560   21.4620 C.ar   60  TRP60       0.0152
     49  NE1       63.5570   48.8020   20.3160 N.ar   60  TRP60      -0.2442
     50  CE2       63.1730   47.9010   21.2720 C.ar   60  TRP60       0.0810
     51  CE3       61.1340   47.2400   22.4000 C.ar   60  TRP60       0.0012
     52  CZ2       63.9300   46.9620   21.9840 C.ar   60  TRP60       0.0191
     53  CZ3       61.8870   46.3030   23.1070 C.ar   60  TRP60       0.0001
     54  CH2       63.2700   46.1740   22.8930 C.ar   60  TRP60       0.0015
     55  N         61.0550   50.9830   23.1630 N.am   61  ASN61      -0.1974
     56  CA        61.3260   50.9670   24.6010 C.3    61  ASN61       0.1688
     57  C         60.5280   52.0100   25.3790 C.2    61  ASN61       0.2292
     58  O         59.7550   51.6650   26.2740 O.2    61  ASN61      -0.2864
     59  CB        62.8170   51.1520   24.8700 C.3    61  ASN61       0.1181
     60  CG        63.5700   49.8510   24.8410 C.2    61  ASN61       0.2629
     61  OD1       63.3770   48.9880   25.6970 O.2    61  ASN61      -0.2716
     62  ND2       64.4400   49.6980   23.8540 N.am   61  ASN61      -0.0877
     63  N         56.7610   51.3700   25.2160 N.3    64  LEU64      -0.1231
     64  CA        56.3360   50.2720   26.0810 C.3    64  LEU64       0.1693
     65  C         56.4900   50.6020   27.5610 C.2    64  LEU64       0.2591
     66  O         55.6230   50.2610   28.3690 O.2    64  LEU64      -0.2718
     67  CB        57.0820   48.9760   25.7460 C.3    64  LEU64       0.0284
     68  CG        56.8090   48.2870   24.4030 C.3    64  LEU64       0.0019
     69  CD1       57.4890   46.9290   24.3630 C.3    64  LEU64       0.0001
     70  CD2       55.3230   48.1400   24.1300 C.3    64  LEU64       0.0001
     71  N         57.5900   51.2690   27.9070 N.am   65  ILE65      -0.1980
     72  CA        57.8480   51.6670   29.2930 C.3    65  ILE65       0.1595
     73  C         56.7700   52.6190   29.8260 C.2    65  ILE65       0.2287
     74  O         56.2560   52.4230   30.9310 O.2    65  ILE65      -0.2864
     75  CB        59.2770   52.2330   29.4900 C.3    65  ILE65       0.0276
     76  CG1       60.3120   51.1110   29.3500 C.3    65  ILE65       0.0022
     77  CG2       59.4210   52.8710   30.8630 C.3    65  ILE65       0.0022
     78  CD1       61.7310   51.5960   29.1630 C.3    65  ILE65       0.0001
     79  N         53.7630   52.7330   28.8280 N.3    67  SER67      -0.1202
     80  CA        52.5360   51.9420   28.9440 C.3    67  SER67       0.2020
     81  C         52.4100   51.1440   30.2390 C.2    67  SER67       0.2618
     82  O         51.3660   51.1880   30.8850 O.2    67  SER67      -0.2717
     83  CB        52.3700   51.0130   27.7420 C.3    67  SER67       0.2103
     84  OG        51.8070   51.7140   26.6540 O.3    67  SER67      -0.2182
     85  N         53.4570   50.4140   30.6170 N.am   68  PHE68      -0.1975
     86  CA        53.3860   49.6010   31.8320 C.3    68  PHE68       0.1639
     87  C         53.5840   50.4020   33.1170 C.2    68  PHE68       0.2290
     88  O         53.2360   49.9380   34.2010 O.2    68  PHE68      -0.2864
     89  CB        54.3030   48.3610   31.7700 C.3    68  PHE68       0.0560
     90  CG        55.7740   48.6480   31.9730 C.ar   68  PHE68      -0.0200
     91  CD1       56.2720   49.0040   33.2260 C.ar   68  PHE68      -0.0042
     92  CD2       56.6690   48.5130   30.9170 C.ar   68  PHE68      -0.0042
     93  CE1       57.6320   49.2570   33.4130 C.ar   68  PHE68      -0.0003
     94  CE2       58.0310   48.7510   31.0950 C.ar   68  PHE68      -0.0003
     95  CZ        58.5120   49.1260   32.3430 C.ar   68  PHE68      -0.0000
     96  N         50.1010   51.8670   33.7860 N.3    71  ARG71      -0.1245
     97  CA        49.2790   50.7280   34.1700 C.3    71  ARG71       0.1563
     98  C         49.4790   50.3970   35.6520 C.2    71  ARG71       0.2260
     99  O         48.5830   49.8560   36.3040 O.2    71  ARG71      -0.2867
    100  CB        49.6440   49.5220   33.3040 C.3    71  ARG71       0.0307
    101  CG        48.6040   48.4130   33.2690 C.3    71  ARG71       0.0489
    102  CD        49.1960   47.1350   32.6910 C.3    71  ARG71       0.2205
    103  NE        49.6060   47.2950   31.2950 N.pl3  71  ARG71      -0.0865
    104  CZ        50.7160   46.7770   30.7750 C.cat  71  ARG71       0.5346
    105  NH1       51.5480   46.0710   31.5310 N.pl3  71  ARG71       0.1354
    106  NH2       50.9980   46.9790   29.4960 N.pl3  71  ARG71       0.1354
    107  N         55.3160   46.8960   39.4920 N.3    79  ILE79      -0.1245
    108  CA        54.7000   47.0900   38.1800 C.3    79  ILE79       0.1561
    109  C         53.7700   45.9360   37.8250 C.2    79  ILE79       0.2260
    110  O         54.0430   44.7770   38.1650 O.2    79  ILE79      -0.2867
    111  CB        55.7450   47.2660   37.0340 C.3    79  ILE79       0.0252
    112  CG1       56.7410   46.0960   37.0150 C.3    79  ILE79       0.0019
    113  CG2       56.4490   48.6190   37.1390 C.3    79  ILE79       0.0019
    114  CD1       57.4880   45.9290   35.7100 C.3    79  ILE79       0.0001
    115  N         52.5360   43.6890   34.9330 N.3    81  LEU81      -0.1231
    116  CA        52.8710   43.2230   33.5880 C.3    81  LEU81       0.1693
    117  C         51.6120   42.9240   32.7740 C.2    81  LEU81       0.2591
    118  O         50.5670   42.5750   33.3320 O.2    81  LEU81      -0.2718
    119  CB        53.7740   41.9850   33.6360 C.3    81  LEU81       0.0284
    120  CG        55.1740   42.0690   34.2510 C.3    81  LEU81       0.0019
    121  CD1       55.8720   40.7260   34.1210 C.3    81  LEU81       0.0001
    122  CD2       56.0140   43.1620   33.6090 C.3    81  LEU81       0.0001
    123  N         51.7280   43.0550   31.4540 N.am   82  ALA82      -0.1980
    124  CA        50.6120   42.8360   30.5270 C.3    82  ALA82       0.1597
    125  C         50.0910   41.4000   30.5490 C.2    82  ALA82       0.2287
    126  O         48.9120   41.1530   30.2740 O.2    82  ALA82      -0.2864
    127  CB        51.0240   43.2180   29.1260 C.3    82  ALA82       0.0319
    128  N         68.3370   43.3890   39.0040 N.3    97  VAL97      -0.1245
    129  CA        67.9670   44.5110   38.1350 C.3    97  VAL97       0.1561
    130  C         67.2080   45.5880   38.9150 C.2    97  VAL97       0.2260
    131  O         66.4100   46.3380   38.3480 O.2    97  VAL97      -0.2867
    132  CB        67.1410   44.0540   36.8920 C.3    97  VAL97       0.0252
    133  CG1       68.0190   43.2990   35.8970 C.3    97  VAL97       0.0019
    134  CG2       65.9340   43.2200   37.3010 C.3    97  VAL97       0.0019
    135  N         67.5790   49.7910   37.9870 N.3   100  ILE100     -0.1231
    136  CA        66.7250   50.3130   36.9090 C.3   100  ILE100      0.1692
    137  C         65.2340   50.2240   37.2510 C.2   100  ILE100      0.2592
    138  O         64.4500   51.1060   36.8990 O.2   100  ILE100     -0.2718
    139  CB        67.0270   49.6300   35.5250 C.3   100  ILE100      0.0266
    140  CG1       66.2470   50.2910   34.3780 C.3   100  ILE100      0.0019
    141  CG2       66.7340   48.1330   35.5560 C.3   100  ILE100      0.0020
    142  CD1       66.4540   51.7980   34.2500 C.3   100  ILE100      0.0001
    143  N         64.8540   49.1540   37.9390 N.am  101  PHE101     -0.1976
    144  CA        63.4770   48.9530   38.3580 C.3   101  PHE101      0.1639
    145  C         63.0170   50.1090   39.2480 C.2   101  PHE101      0.2290
    146  O         61.9190   50.6320   39.0710 O.2   101  PHE101     -0.2864
    147  CB        63.3440   47.6160   39.0920 C.3   101  PHE101      0.0560
    148  CG        61.9290   47.1550   39.2640 C.ar  101  PHE101     -0.0200
    149  CD1       61.3340   46.3350   38.3100 C.ar  101  PHE101     -0.0042
    150  CD2       61.1900   47.5300   40.3840 C.ar  101  PHE101     -0.0042
    151  CE1       60.0200   45.8940   38.4680 C.ar  101  PHE101     -0.0003
    152  CE2       59.8760   47.1030   40.5470 C.ar  101  PHE101     -0.0003
    153  CZ        59.2900   46.2810   39.5880 C.ar  101  PHE101     -0.0000
    154  N         62.3910   53.2780   37.2330 N.3   104  VAL104     -0.1245
    155  CA        61.0560   53.2240   36.6450 C.3   104  VAL104      0.1561
    156  C         60.0310   53.6570   37.6880 C.2   104  VAL104      0.2260
    157  O         59.1980   54.5280   37.4220 O.2   104  VAL104     -0.2867
    158  CB        60.7300   51.8010   36.1100 C.3   104  VAL104      0.0252
    159  CG1       59.2430   51.6380   35.8200 C.3   104  VAL104      0.0019
    160  CG2       61.5540   51.4910   34.8660 C.3   104  VAL104      0.0019
    161  N         67.3500   50.3620   29.6230 N.3   187  CYS187     -0.1235
    162  CA        66.6650   49.1010   29.3250 C.3   187  CYS187      0.1677
    163  C         67.3070   48.3560   28.1680 C.2   187  CYS187      0.2270
    164  O         67.5440   47.1540   28.2660 O.2   187  CYS187     -0.2867
    165  CB        65.1920   49.3350   29.0110 C.3   187  CYS187      0.0956
    166  SG        64.1370   49.2650   30.4490 S.3   187  CYS187     -0.0801
    167  N         70.4480   46.5710   29.2320 N.3   190  HIS190     -0.1226
    168  CA        70.0920   45.3440   29.9420 C.3   190  HIS190      0.1752
    169  C         69.6730   44.2520   28.9720 C.2   190  HIS190      0.2595
    170  O         70.1570   43.1290   29.0630 O.2   190  HIS190     -0.2718
    171  CB        68.9730   45.5980   30.9580 C.3   190  HIS190      0.0759
    172  CG        69.4590   46.0650   32.2960 C.ar  190  HIS190      0.0818
    173  ND1       69.3740   47.3800   32.7010 N.ar  190  HIS190     -0.2268
    174  CD2       70.0340   45.3930   33.3210 C.ar  190  HIS190      0.1154
    175  CE1       69.8780   47.4970   33.9170 C.ar  190  HIS190      0.1986
    176  NE2       70.2830   46.3060   34.3170 N.ar  190  HIS190     -0.2212
    177  N         68.7860   44.5970   28.0400 N.am  191  LEU191     -0.1980
    178  CA        68.2670   43.6470   27.0590 C.3   191  LEU191      0.1596
    179  C         69.3610   43.1040   26.1410 C.2   191  LEU191      0.2287
    180  O         69.3380   41.9240   25.7850 O.2   191  LEU191     -0.2864
    181  CB        67.1240   44.2630   26.2450 C.3   191  LEU191      0.0297
    182  CG        65.8130   44.5900   26.9740 C.3   191  LEU191      0.0022
    183  CD1       64.9270   45.4900   26.1190 C.3   191  LEU191      0.0001
    184  CD2       65.0510   43.3390   27.4030 C.3   191  LEU191      0.0001
    185  N         71.1990   40.5720   28.3700 N.3   194  PHE194     -0.1241
    186  CA        70.4630   39.3180   28.5060 C.3   194  PHE194      0.1605
    187  C         70.6690   38.4890   27.2450 C.2   194  PHE194      0.2264
    188  O         70.7610   37.2620   27.3080 O.2   194  PHE194     -0.2867
    189  CB        68.9660   39.5480   28.7570 C.3   194  PHE194      0.0534
    190  CG        68.6640   40.4340   29.9420 C.ar  194  PHE194     -0.0203
    191  CD1       69.4840   40.4380   31.0700 C.ar  194  PHE194     -0.0042
    192  CD2       67.5410   41.2550   29.9340 C.ar  194  PHE194     -0.0042
    193  CE1       69.2020   41.2570   32.1570 C.ar  194  PHE194     -0.0003
    194  CE2       67.2480   42.0770   31.0210 C.ar  194  PHE194     -0.0003
    195  CZ        68.0790   42.0760   32.1350 C.ar  194  PHE194     -0.0000
@<TRIPOS>BOND
     1    47    49   ar
     2    47    46   ar
     3    49    50   ar
     4    45    46    1
     5    45    42    1
     6    41    42    1
     7    46    48   ar
     8    42    43    1
     9    50    48   ar
    10    50    52   ar
    11    48    51   ar
    12    52    54   ar
    13    35    34    2
    14    51    53   ar
    15    34    33    1
    16    43    55   am
    17    43    44    2
    18    54    53   ar
    19    55    56    1
    20    62    60   am
    21    33    32    1
    22    33    36    1
    23    70    68    1
    24    30    29    2
    25    69    68    1
    26    68    67    1
    27    56    59    1
    28    56    57    1
    29    60    59    1
    30    60    61    2
    31    29    28    1
    32    36    37    1
    33    63    64    1
    34    57    58    2
    35    67    64    1
    36   180   179    2
    37    39    38    2
    38    40    38   am
    39    38    37    1
    40    64    65    1
    41   183   182    1
    42   179   178    1
    43   181   182    1
    44   181   178    1
    45    28    31    1
    46    28    27    1
    47    84    83    1
    48    19    18    2
    49   182   184    1
    50    25    24    2
    51   178   177    1
    52   187   188    2
    53   187   186    1
    54    27    24   am
    55    65    71   am
    56    65    66    2
    57    24    23    1
    58    83    80    1
    59    18    17    1
    60    71    72    1
    61   177   169   am
    62   163   164    2
    63   163   162    1
    64   185   186    1
    65   186   189    1
    66    20    17    1
    67    20    21    1
    68    23    22    1
    69    23    26    1
    70    17    16    1
    71   189   190    1
    72    79    80    1
    73    80    81    1
    74   169   170    2
    75   169   168    1
    76   165   162    1
    77   165   166    1
    78   127   124    1
    79    78    76    1
    80   167   168    1
    81    72    75    1
    82    72    73    1
    83   162   161    1
    84    76    75    1
    85    75    77    1
    86   106   104    1
    87    73    74    2
    88    11    10    2
    89   192   190   ar
    90   192   194   ar
    91   190   191   ar
    92   168   171    1
    93    16    10   am
    94    81    85   am
    95    81    82    2
    96   126   125    2
    97   124   125    1
    98   124   123    1
    99    10     9    1
   100    85    86    1
   101   104   103    2
   102   104   105    1
   103    92    94   ar
   104    92    90   ar
   105   171   172    1
   106   194   195   ar
   107   191   193   ar
   108    94    95   ar
   109   103   102    1
   110   123   117   am
   111    89    86    1
   112    89    90    1
   113    86    87    1
   114     4     3    2
   115    90    91   ar
   116     9     8    1
   117     9    12    1
   118   195   193   ar
   119   172   173   ar
   120   172   174   ar
   121    14    12    1
   122    95    93   ar
   123   102   101    1
   124     6     5    1
   125   173   175   ar
   126   117   118    2
   127   117   116    1
   128    12    13    1
   129     3     2    1
   130    87    88    2
   131    91    93   ar
   132   101   100    1
   133   100    97    1
   134   174   176   ar
   135   116   119    1
   136   116   115    1
   137   122   120    1
   138   119   120    1
   139    96    97    1
   140   175   176   ar
   141     5     2    1
   142     5     7    1
   143   121   120    1
   144     2     1    1
   145    97    98    1
   146   142   140    1
   147   140   139    1
   148    13    15    1
   149   160   158    1
   150   139   141    1
   151   139   136    1
   152    98    99    2
   153   114   112    1
   154   159   158    1
   155   133   132    1
   156   158   155    1
   157   155   154    1
   158   155   156    1
   159   132   134    1
   160   132   129    1
   161   138   137    2
   162   136   137    1
   163   136   135    1
   164   112   111    1
   165   111   113    1
   166   111   108    1
   167   137   143   am
   168   157   156    2
   169   109   110    2
   170   109   108    1
   171   143   144    1
   172   129   130    1
   173   129   128    1
   174   108   107    1
   175   149   151   ar
   176   149   148   ar
   177   131   130    2
   178   144   147    1
   179   144   145    1
   180   151   153   ar
   181   146   145    2
   182   147   148    1
   183   148   150   ar
   184   153   152   ar
   185   150   152   ar
