@<TRIPOS>MOLECULE
tmp/2zy0A00.pdb
 154 148 0 0 0
SMALL
GASTEIGER

@<TRIPOS>ATOM
      1  N          6.2570   11.6040    5.9990 N.3    34  PHE34      -0.1241
      2  CA         5.2240   11.3380    5.0040 C.3    34  PHE34       0.1605
      3  C          4.0920   12.3530    5.1040 C.2    34  PHE34       0.2264
      4  O          3.6920   12.9420    4.0980 O.2    34  PHE34      -0.2867
      5  CB         4.6770    9.9130    5.1410 C.3    34  PHE34       0.0534
      6  CG         5.6760    8.8430    4.7990 C.ar   34  PHE34      -0.0203
      7  CD1        6.4950    8.2920    5.7850 C.ar   34  PHE34      -0.0042
      8  CD2        5.8000    8.3820    3.4910 C.ar   34  PHE34      -0.0042
      9  CE1        7.4260    7.2990    5.4710 C.ar   34  PHE34      -0.0003
     10  CE2        6.7300    7.3880    3.1650 C.ar   34  PHE34      -0.0003
     11  CZ         7.5420    6.8460    4.1570 C.ar   34  PHE34      -0.0000
     12  N          4.6890   16.0330    3.9790 N.3    37  VAL37      -0.1231
     13  CA         4.4560   16.2830    2.5580 C.3    37  VAL37       0.1692
     14  C          2.9970   16.6740    2.3290 C.2    37  VAL37       0.2591
     15  O          2.7220   17.6530    1.6310 O.2    37  VAL37      -0.2718
     16  CB         4.8460   15.0690    1.6740 C.3    37  VAL37       0.0266
     17  CG1        4.6340   15.3830    0.1950 C.3    37  VAL37       0.0020
     18  CG2        6.2930   14.6750    1.9210 C.3    37  VAL37       0.0020
     19  N          2.0760   15.9210    2.9370 N.am   38  GLU38      -0.1979
     20  CA         0.6380   16.2070    2.8450 C.3    38  GLU38       0.1602
     21  C          0.2890   17.5920    3.4010 C.2    38  GLU38       0.2287
     22  O         -0.5340   18.3040    2.8260 O.2    38  GLU38      -0.2864
     23  CB        -0.1950   15.1170    3.5390 C.3    38  GLU38       0.0415
     24  CG        -0.1680   13.7450    2.8390 C.3    38  GLU38       0.1163
     25  CD        -0.6750   13.7950    1.3960 C.2    38  GLU38       0.3649
     26  OE1       -1.8910   14.0330    1.1900 O.co2  38  GLU38      -0.2457
     27  OE2        0.1470   13.5940    0.4670 O.co2  38  GLU38      -0.2457
     28  N          1.6170   20.4830    0.8790 N.3    41  LYS41      -0.1245
     29  CA         0.7160   20.5990   -0.2730 C.3    41  LYS41       0.1561
     30  C         -0.5000   21.4740    0.0180 C.2    41  LYS41       0.2260
     31  O         -0.9370   22.2500   -0.8370 O.2    41  LYS41      -0.2867
     32  CB         0.2350   19.2150   -0.7070 C.3    41  LYS41       0.0271
     33  CG         1.2670   18.3840   -1.4400 C.3    41  LYS41       0.0035
     34  CD         0.6790   17.0380   -1.8200 C.3    41  LYS41       0.0206
     35  CE         1.6270   16.2550   -2.6970 C.3    41  LYS41       0.1093
     36  NZ         1.1230   14.8770   -2.9050 N.3    41  LYS41      -0.1314
     37  N          2.1380   26.3870   -2.3790 N.3    46  PHE46      -0.1241
     38  CA         3.3190   25.5380   -2.3140 C.3    46  PHE46       0.1605
     39  C          3.3700   24.6230   -3.5330 C.2    46  PHE46       0.2264
     40  O          4.3940   24.5610   -4.2160 O.2    46  PHE46      -0.2867
     41  CB         3.3700   24.7270   -1.0190 C.3    46  PHE46       0.0534
     42  CG         4.5400   23.7840   -0.9470 C.ar   46  PHE46      -0.0203
     43  CD1        5.8090   24.2530   -0.6190 C.ar   46  PHE46      -0.0042
     44  CD2        4.3800   22.4310   -1.2240 C.ar   46  PHE46      -0.0042
     45  CE1        6.8980   23.3900   -0.5620 C.ar   46  PHE46      -0.0003
     46  CE2        5.4640   21.5590   -1.1690 C.ar   46  PHE46      -0.0003
     47  CZ         6.7250   22.0410   -0.8350 C.ar   46  PHE46      -0.0000
     48  N          8.4450   21.6690   -9.2260 N.3    51  LEU51      -0.1231
     49  CA         8.7000   20.4780   -8.4100 C.3    51  LEU51       0.1693
     50  C         10.0670   20.4990   -7.7170 C.2    51  LEU51       0.2592
     51  O         10.1960   20.0610   -6.5710 O.2    51  LEU51      -0.2718
     52  CB         8.5400   19.1970   -9.2450 C.3    51  LEU51       0.0284
     53  CG         8.7900   17.8420   -8.5650 C.3    51  LEU51       0.0019
     54  CD1        7.7410   17.5520   -7.4930 C.3    51  LEU51       0.0001
     55  CD2        8.8380   16.7140   -9.5810 C.3    51  LEU51       0.0001
     56  N         11.0740   21.0220   -8.4100 N.am   52  ASP52      -0.1974
     57  CA        12.4420   21.0600   -7.8880 C.3    52  ASP52       0.1709
     58  C         12.6000   21.9810   -6.6750 C.2    52  ASP52       0.2293
     59  O         13.3940   21.6950   -5.7780 O.2    52  ASP52      -0.2864
     60  CB        13.4300   21.4310   -9.0000 C.3    52  ASP52       0.1436
     61  CG        13.4660   20.3910  -10.1120 C.2    52  ASP52       0.3671
     62  OD1       14.2520   19.4260  -10.0050 O.co2  52  ASP52      -0.2456
     63  OD2       12.6990   20.5350  -11.0920 O.co2  52  ASP52      -0.2456
     64  N          9.9820   22.7110   -4.6120 N.3    54  GLN54      -0.1231
     65  CA         9.2130   22.0280   -3.5760 C.3    54  GLN54       0.1698
     66  C         10.0940   21.0580   -2.7870 C.2    54  GLN54       0.2592
     67  O          9.9580   20.9400   -1.5670 O.2    54  GLN54      -0.2718
     68  CB         8.0300   21.2750   -4.1900 C.3    54  GLN54       0.0381
     69  CG         6.9220   22.1640   -4.7400 C.3    54  GLN54       0.0905
     70  CD         5.7070   21.3760   -5.2110 C.2    54  GLN54       0.2608
     71  OE1        5.2790   20.4160   -4.5660 O.2    54  GLN54      -0.2717
     72  NE2        5.1380   21.7860   -6.3360 N.am   54  GLN54      -0.0878
     73  N         10.9930   20.3710   -3.4960 N.am   55  VAL55      -0.1980
     74  CA        11.9500   19.4390   -2.8950 C.3    55  VAL55       0.1595
     75  C         12.9790   20.1790   -2.0340 C.2    55  VAL55       0.2287
     76  O         13.1870   19.8200   -0.8740 O.2    55  VAL55      -0.2864
     77  CB        12.6690   18.5850   -3.9740 C.3    55  VAL55       0.0276
     78  CG1       13.8330   17.8090   -3.3770 C.3    55  VAL55       0.0022
     79  CG2       11.6970   17.6300   -4.6350 C.3    55  VAL55       0.0022
     80  N         11.6210   21.5060    1.3350 N.3    58  LEU58      -0.1231
     81  CA        11.3450   20.4330    2.2850 C.3    58  LEU58       0.1693
     82  C         12.6120   19.7610    2.8130 C.2    58  LEU58       0.2591
     83  O         12.6450   19.3200    3.9610 O.2    58  LEU58      -0.2718
     84  CB        10.4030   19.3880    1.6770 C.3    58  LEU58       0.0284
     85  CG         8.9020   19.6920    1.6420 C.3    58  LEU58       0.0019
     86  CD1        8.1780   18.6350    0.8300 C.3    58  LEU58       0.0001
     87  CD2        8.3080   19.7820    3.0440 C.3    58  LEU58       0.0001
     88  N         13.6490   19.6820    1.9820 N.am   59  ARG59      -0.1980
     89  CA        14.9300   19.1190    2.4140 C.3    59  ARG59       0.1597
     90  C         15.6490   20.0670    3.3610 C.2    59  ARG59       0.2287
     91  O         16.4290   19.6330    4.2060 O.2    59  ARG59      -0.2864
     92  CB        15.8350   18.7910    1.2220 C.3    59  ARG59       0.0334
     93  CG        15.3160   17.6800    0.3310 C.3    59  ARG59       0.0492
     94  CD        16.4340   17.0000   -0.4450 C.3    59  ARG59       0.2205
     95  NE        16.9490   15.8250    0.2620 N.pl3  59  ARG59      -0.0865
     96  CZ        18.1620   15.7310    0.8030 C.cat  59  ARG59       0.5346
     97  NH1       19.0240   16.7420    0.7180 N.pl3  59  ARG59       0.1354
     98  NH2       18.5180   14.6150    1.4250 N.pl3  59  ARG59       0.1354
     99  N         13.5250    4.3230    5.6460 N.3   206  THR206     -0.1203
    100  CA        13.8750    4.7680    4.2970 C.3   206  THR206      0.1994
    101  C         13.7450    6.2760    4.0610 C.2   206  THR206      0.2617
    102  O         14.6620    6.9030    3.5230 O.2   206  THR206     -0.2717
    103  CB        13.0480    4.0160    3.2380 C.3   206  THR206      0.1784
    104  OG1       11.6530    4.2510    3.4720 O.3   206  THR206     -0.2211
    105  CG2       13.3370    2.5160    3.2950 C.3   206  THR206      0.0376
    106  N         12.6140    6.8500    4.4650 N.am  207  PHE207     -0.1975
    107  CA        12.3610    8.2760    4.2570 C.3   207  PHE207      0.1639
    108  C         13.2660    9.1510    5.1380 C.2   207  PHE207      0.2290
    109  O         13.7370   10.2050    4.7080 O.2   207  PHE207     -0.2864
    110  CB        10.8830    8.6000    4.5010 C.3   207  PHE207      0.0560
    111  CG        10.4000    9.8510    3.8090 C.ar  207  PHE207     -0.0200
    112  CD1        9.0620   10.2180    3.8900 C.ar  207  PHE207     -0.0042
    113  CD2       11.2660   10.6530    3.0650 C.ar  207  PHE207     -0.0042
    114  CE1        8.6010   11.3730    3.2650 C.ar  207  PHE207     -0.0003
    115  CE2       10.8130   11.8070    2.4350 C.ar  207  PHE207     -0.0003
    116  CZ         9.4750   12.1650    2.5320 C.ar  207  PHE207     -0.0000
    117  N         16.6290    8.9120    3.5390 N.3   210  GLU210     -0.1231
    118  CA        16.6810    9.7150    2.3120 C.3   210  GLU210      0.1699
    119  C         16.8960   11.1980    2.5980 C.2   210  GLU210      0.2592
    120  O         17.5770   11.8900    1.8370 O.2   210  GLU210     -0.2718
    121  CB        15.4120    9.5240    1.4790 C.3   210  GLU210      0.0402
    122  CG        15.5420   10.0310    0.0510 C.3   210  GLU210      0.1161
    123  CD        14.2070   10.1890   -0.6380 C.2   210  GLU210      0.3649
    124  OE1       13.4950   11.1770   -0.3560 O.co2 210  GLU210     -0.2457
    125  OE2       13.8790    9.3260   -1.4750 O.co2 210  GLU210     -0.2457
    126  N         16.3080   11.6770    3.6910 N.am  211  MET211     -0.1979
    127  CA        16.4880   13.0610    4.1240 C.3   211  MET211      0.1605
    128  C         17.8920   13.2960    4.6790 C.2   211  MET211      0.2287
    129  O         18.3920   14.4190    4.6540 O.2   211  MET211     -0.2864
    130  CB        15.4350   13.4450    5.1680 C.3   211  MET211      0.0413
    131  CG        14.0110   13.5440    4.6330 C.3   211  MET211      0.0598
    132  SD        13.8200   14.8340    3.3900 S.3   211  MET211     -0.1393
    133  CE        12.0600   15.1270    3.4690 C.3   211  MET211      0.0692
    134  N         20.6910   12.0960    3.4780 N.3   213  GLU213     -0.1231
    135  CA        21.7370   11.8810    2.4860 C.3   213  GLU213      0.1699
    136  C         22.1540   13.1630    1.7800 C.2   213  GLU213      0.2592
    137  O         21.3130   13.9970    1.4440 O.2   213  GLU213     -0.2718
    138  CB        21.3610   10.7690    1.5090 C.3   213  GLU213      0.0402
    139  CG        22.1650    9.4900    1.7680 C.3   213  GLU213      0.1161
    140  CD        21.3050    8.2420    1.9230 C.2   213  GLU213      0.3649
    141  OE1       21.6750    7.3750    2.7490 O.co2 213  GLU213     -0.2457
    142  OE2       20.2640    8.1240    1.2310 O.co2 213  GLU213     -0.2457
    143  N         23.4670   13.3070    1.5870 N.am  214  ALA214     -0.1966
    144  CA        24.0800   14.5020    0.9980 C.3   214  ALA214      0.1713
    145  C         23.3100   15.0070   -0.2260 C.2   214  ALA214      0.2458
    146  O         22.9860   14.2120   -1.1140 O.2   214  ALA214     -0.2730
    147  CB        25.5450   14.2250    0.6390 C.3   214  ALA214      0.0333
    148  N         23.0180   16.3310   -0.2700 N.am  215  PRO215     -0.2727
    149  CA        22.1840   16.9850   -1.2840 C.3   215  PRO215      0.1402
    150  C         22.1090   16.2380   -2.6170 C.2   215  PRO215      0.2269
    151  O         21.2390   15.3780   -2.7920 O.2   215  PRO215     -0.2865
    152  CB        22.8800   18.3390   -1.4700 C.3   215  PRO215      0.0296
    153  CG        23.5590   18.6120   -0.1230 C.3   215  PRO215      0.0237
    154  CD        23.5260   17.3280    0.6940 C.3   215  PRO215      0.0939
@<TRIPOS>BOND
     1    63    61   ar
     2    61    62   ar
     3    61    60    1
     4    55    53    1
     5    52    53    1
     6    52    49    1
     7    48    49    1
     8    60    57    1
     9    53    54    1
    10    56    57    1
    11    56    50   am
    12    49    50    1
    13    57    58    1
    14    50    51    2
    15    58    59    2
    16    72    70   am
    17    70    69    1
    18    70    71    2
    19    69    68    1
    20    79    77    1
    21    64    65    1
    22    40    39    2
    23    68    65    1
    24    77    78    1
    25    77    74    1
    26    65    66    1
    27    39    38    1
    28    73    74    1
    29    73    66   am
    30    36    35    1
    31    74    75    1
    32   151   150    2
    33    66    67    2
    34    35    34    1
    35   150   149    1
    36    37    38    1
    37    38    41    1
    38    75    76    2
    39    34    33    1
    40   125   123   ar
    41   152   149    1
    42   152   153    1
    43    33    32    1
    44   149   148    1
    45    44    46   ar
    46    44    42   ar
    47    46    47   ar
    48   146   145    2
    49    41    42    1
    50    42    43   ar
    51    31    30    2
    52    47    45   ar
    53    32    29    1
    54   123   124   ar
    55   123   122    1
    56    43    45   ar
    57    94    95    1
    58    94    93    1
    59    29    30    1
    60    29    28    1
    61   148   145   am
    62   148   154    1
    63   145   144    1
    64   153   154    1
    65   122   121    1
    66    17    16    1
    67    95    96    2
    68    93    92    1
    69    27    25   ar
    70   147   144    1
    71    97    96    1
    72    96    98    1
    73    86    85    1
    74   144   143    1
    75    26    25   ar
    76    92    89    1
    77   142   140   ar
    78    80    81    1
    79    25    24    1
    80   137   136    2
    81   121   118    1
    82   138   139    1
    83   138   135    1
    84   143   136   am
    85    15    14    2
    86    85    84    1
    87    85    87    1
    88    16    18    1
    89    16    13    1
    90    84    81    1
    91   139   140    1
    92   136   135    1
    93   120   119    2
    94   140   141   ar
    95    88    89    1
    96    88    82   am
    97    81    82    1
    98   118   119    1
    99   118   117    1
   100    14    13    1
   101    14    19   am
   102    89    90    1
   103   115   116   ar
   104   115   113   ar
   105   135   134    1
   106   116   114   ar
   107    13    12    1
   108   119   126   am
   109    82    83    2
   110    22    21    2
   111    24    23    1
   112    20    19    1
   113    20    21    1
   114    20    23    1
   115   113   111   ar
   116    10     8   ar
   117    10    11   ar
   118   103   105    1
   119   103   104    1
   120   103   100    1
   121   114   112   ar
   122    90    91    2
   123   132   133    1
   124   132   131    1
   125     8     6   ar
   126   102   101    2
   127   126   127    1
   128   111   112   ar
   129   111   110    1
   130   101   100    1
   131   101   106   am
   132     4     3    2
   133   127   128    1
   134   127   130    1
   135    11     9   ar
   136   107   106    1
   137   107   110    1
   138   107   108    1
   139   100    99    1
   140   131   130    1
   141   129   128    2
   142   109   108    2
   143     6     5    1
   144     6     7   ar
   145     2     3    1
   146     2     5    1
   147     2     1    1
   148     9     7   ar
