@<TRIPOS>MOLECULE
tmp/2zy0C01.pdb
 203 192 0 0 0
SMALL
GASTEIGER

@<TRIPOS>ATOM
      1  N         42.3900   33.9280    6.1420 N.3    22  VAL22      -0.1245
      2  CA        41.8920   33.3790    7.4090 C.3    22  VAL22       0.1561
      3  C         42.6300   33.9620    8.6320 C.2    22  VAL22       0.2260
      4  O         42.0250   34.1850    9.6810 O.2    22  VAL22      -0.2867
      5  CB        41.9250   31.8180    7.3960 C.3    22  VAL22       0.0252
      6  CG1       41.6160   31.2320    8.7680 C.3    22  VAL22       0.0019
      7  CG2       40.9440   31.2750    6.3690 C.3    22  VAL22       0.0019
      8  N         41.2330   37.7720    8.9690 N.3    25  ILE25      -0.1231
      9  CA        39.8770   37.8100    9.5130 C.3    25  ILE25       0.1692
     10  C         39.9060   37.5140   11.0130 C.2    25  ILE25       0.2592
     11  O         39.1650   38.1230   11.7870 O.2    25  ILE25      -0.2718
     12  CB        38.9440   36.8190    8.7700 C.3    25  ILE25       0.0266
     13  CG1       38.8630   37.1830    7.2820 C.3    25  ILE25       0.0019
     14  CG2       37.5440   36.8150    9.3890 C.3    25  ILE25       0.0020
     15  CD1       38.3880   36.0570    6.3850 C.3    25  ILE25       0.0001
     16  N         40.7830   36.5930   11.4080 N.am   26  CYS26      -0.1970
     17  CA        40.9760   36.2340   12.8100 C.3    26  CYS26       0.1712
     18  C         41.6240   37.3370   13.6300 C.2    26  CYS26       0.2296
     19  O         41.2610   37.5350   14.7900 O.2    26  CYS26      -0.2864
     20  CB        41.8060   34.9640   12.9230 C.3    26  CYS26       0.0983
     21  SG        40.8370   33.4760   12.7490 S.3    26  CYS26      -0.0798
     22  N         41.2630   40.4570   12.9510 N.3    28  ALA28      -0.1231
     23  CA        40.1910   41.4330   13.0400 C.3    28  ALA28       0.1694
     24  C         39.1320   41.0290   14.0650 C.2    28  ALA28       0.2591
     25  O         38.5090   41.8920   14.6910 O.2    28  ALA28      -0.2718
     26  CB        39.5650   41.6390   11.6750 C.3    28  ALA28       0.0304
     27  N         38.9360   39.7220   14.2360 N.am   29  ALA29      -0.1980
     28  CA        37.9360   39.1980   15.1680 C.3    29  ALA29       0.1597
     29  C         38.3210   39.4480   16.6230 C.2    29  ALA29       0.2287
     30  O         37.4960   39.9100   17.4140 O.2    29  ALA29      -0.2864
     31  CB        37.7090   37.7190   14.9260 C.3    29  ALA29       0.0319
     32  N         38.0050   43.1630   17.3420 N.3    32  GLN32      -0.1245
     33  CA        36.6140   43.5840   17.5080 C.3    32  GLN32       0.1566
     34  C         35.9470   43.1160   18.7970 C.2    32  GLN32       0.2260
     35  O         34.9470   43.6990   19.2190 O.2    32  GLN32      -0.2867
     36  CB        35.7740   43.1600   16.3000 C.3    32  GLN32       0.0367
     37  CG        36.0440   43.9890   15.0540 C.3    32  GLN32       0.0905
     38  CD        35.8040   45.4750   15.2710 C.2    32  GLN32       0.2608
     39  OE1       36.7450   46.2410   15.4860 O.2    32  GLN32      -0.2717
     40  NE2       34.5400   45.8850   15.2270 N.am   32  GLN32      -0.0878
     41  N         28.6460   36.6330   20.8820 N.3    62  TRP62      -0.1227
     42  CA        29.7520   37.2940   20.1790 C.3    62  TRP62       0.1737
     43  C         29.8110   37.0280   18.6780 C.2    62  TRP62       0.2595
     44  O         30.0080   37.9540   17.8960 O.2    62  TRP62      -0.2718
     45  CB        31.1100   37.0350   20.8450 C.3    62  TRP62       0.0564
     46  CG        31.5640   35.6070   20.8960 C.ar   62  TRP62       0.0003
     47  CD1       31.1030   34.6320   21.7290 C.ar   62  TRP62       0.0946
     48  CD2       32.6040   35.0080   20.1130 C.ar   62  TRP62       0.0152
     49  NE1       31.7770   33.4550   21.5050 N.ar   62  TRP62      -0.2442
     50  CE2       32.7050   33.6570   20.5170 C.ar   62  TRP62       0.0810
     51  CE3       33.4540   35.4760   19.1010 C.ar   62  TRP62       0.0012
     52  CZ2       33.6250   32.7680   19.9460 C.ar   62  TRP62       0.0191
     53  CZ3       34.3680   34.5900   18.5310 C.ar   62  TRP62       0.0001
     54  CH2       34.4440   33.2530   18.9570 C.ar   62  TRP62       0.0015
     55  N         29.6220   35.7740   18.2810 N.am   63  ASN63      -0.1974
     56  CA        29.6500   35.4260   16.8660 C.3    63  ASN63       0.1688
     57  C         28.5970   36.1920   16.0720 C.2    63  ASN63       0.2292
     58  O         28.9360   36.9730   15.1860 O.2    63  ASN63      -0.2864
     59  CB        29.5200   33.9160   16.6650 C.3    63  ASN63       0.1181
     60  CG        30.8580   33.2100   16.7130 C.2    63  ASN63       0.2629
     61  OD1       31.6250   33.2510   15.7530 O.2    63  ASN63      -0.2716
     62  ND2       31.1460   32.5540   17.8330 N.am   63  ASN63      -0.0877
     63  N         29.1190   40.1270   16.1300 N.3    66  LEU66      -0.1231
     64  CA        30.2050   40.5860   15.2740 C.3    66  LEU66       0.1693
     65  C         29.9240   40.3500   13.7900 C.2    66  LEU66       0.2591
     66  O         30.3170   41.1590   12.9480 O.2    66  LEU66      -0.2718
     67  CB        31.5310   39.9310   15.6740 C.3    66  LEU66       0.0284
     68  CG        32.1350   40.2640   17.0430 C.3    66  LEU66       0.0019
     69  CD1       33.4980   39.6070   17.1960 C.3    66  LEU66       0.0001
     70  CD2       32.2380   41.7640   17.2720 C.3    66  LEU66       0.0001
     71  N         29.2510   39.2420   13.4780 N.am   67  ILE67      -0.1980
     72  CA        28.8890   38.9090   12.0970 C.3    67  ILE67       0.1595
     73  C         27.9360   39.9550   11.5080 C.2    67  ILE67       0.2287
     74  O         28.1340   40.4100   10.3810 O.2    67  ILE67      -0.2864
     75  CB        28.3280   37.4610   11.9610 C.3    67  ILE67       0.0276
     76  CG1       29.4530   36.4380   12.1540 C.3    67  ILE67       0.0022
     77  CG2       27.7080   37.2440   10.5940 C.3    67  ILE67       0.0022
     78  CD1       28.9830   35.0110   12.4100 C.3    67  ILE67       0.0001
     79  N         27.7260   43.0050   12.4640 N.3    69  SER69      -0.1202
     80  CA        28.5040   44.2340   12.3690 C.3    69  SER69       0.2020
     81  C         29.2890   44.3600   11.0760 C.2    69  SER69       0.2618
     82  O         29.1480   45.3610   10.3740 O.2    69  SER69      -0.2717
     83  CB        29.4460   44.3780   13.5580 C.3    69  SER69       0.2103
     84  OG        28.8830   45.2410   14.5240 O.3    69  SER69      -0.2182
     85  N         30.1120   43.3600   10.7580 N.am   70  PHE70      -0.1975
     86  CA        30.9220   43.4310    9.5440 C.3    70  PHE70       0.1639
     87  C         30.0900   43.3190    8.2570 C.2    70  PHE70       0.2290
     88  O         30.4990   43.8130    7.2080 O.2    70  PHE70      -0.2864
     89  CB        32.1390   42.4830    9.5780 C.3    70  PHE70       0.0560
     90  CG        31.8110   41.0170    9.4120 C.ar   70  PHE70      -0.0200
     91  CD1       31.4570   40.4930    8.1690 C.ar   70  PHE70      -0.0042
     92  CD2       31.9200   40.1460   10.4910 C.ar   70  PHE70      -0.0042
     93  CE1       31.1730   39.1370    8.0200 C.ar   70  PHE70      -0.0003
     94  CE2       31.6460   38.7870   10.3460 C.ar   70  PHE70      -0.0003
     95  CZ        31.2680   38.2830    9.1120 C.ar   70  PHE70      -0.0000
     96  N         28.5430   46.7200    7.5730 N.3    73  ARG73      -0.1245
     97  CA        29.6870   47.5360    7.2030 C.3    73  ARG73       0.1563
     98  C         30.0700   47.2880    5.7450 C.2    73  ARG73       0.2260
     99  O         30.7720   48.0990    5.1340 O.2    73  ARG73      -0.2867
    100  CB        30.8610   47.2010    8.1210 C.3    73  ARG73       0.0307
    101  CG        32.0210   48.1700    8.0810 C.3    73  ARG73       0.0489
    102  CD        33.2630   47.5040    8.6340 C.3    73  ARG73       0.2205
    103  NE        33.1060   47.1270   10.0410 N.pl3  73  ARG73      -0.0865
    104  CZ        33.6320   46.0390   10.6000 C.cat  73  ARG73       0.5346
    105  NH1       34.3520   45.1830    9.8810 N.pl3  73  ARG73       0.1354
    106  NH2       33.4310   45.8030   11.8880 N.pl3  73  ARG73       0.1354
    107  N         33.9360   41.6630    1.8700 N.3    81  ILE81      -0.1245
    108  CA        33.6710   42.3530    3.1340 C.3    81  ILE81       0.1561
    109  C         34.8090   43.2920    3.5240 C.2    81  ILE81       0.2260
    110  O         35.9720   43.0430    3.2010 O.2    81  ILE81      -0.2867
    111  CB        33.3900   41.3680    4.3150 C.3    81  ILE81       0.0252
    112  CG1       34.4780   40.2890    4.4080 C.3    81  ILE81       0.0019
    113  CG2       31.9880   40.7570    4.2030 C.3    81  ILE81       0.0019
    114  CD1       34.6560   39.7110    5.7920 C.3    81  ILE81       0.0001
    115  N         36.9090   44.3930    6.4650 N.3    83  LEU83      -0.1231
    116  CA        37.3280   44.0910    7.8300 C.3    83  LEU83       0.1693
    117  C         37.6110   45.3710    8.6050 C.2    83  LEU83       0.2591
    118  O         37.9880   46.3930    8.0230 O.2    83  LEU83      -0.2718
    119  CB        38.5740   43.2030    7.8360 C.3    83  LEU83       0.0284
    120  CG        38.5130   41.7930    7.2430 C.3    83  LEU83       0.0019
    121  CD1       39.9100   41.1890    7.2530 C.3    83  LEU83       0.0001
    122  CD2       37.5320   40.8890    7.9870 C.3    83  LEU83       0.0001
    123  N         37.4390   45.2980    9.9230 N.am   84  ALA84      -0.1980
    124  CA        37.6770   46.4310   10.8220 C.3    84  ALA84       0.1597
    125  C         39.1410   46.8910   10.8440 C.2    84  ALA84       0.2287
    126  O         39.4420   48.0070   11.2750 O.2    84  ALA84      -0.2864
    127  CB        37.2120   46.0880   12.2170 C.3    84  ALA84       0.0319
    128  N         37.3460   28.5590    2.6020 N.3    99  VAL99      -0.1245
    129  CA        36.2290   28.9950    3.4490 C.3    99  VAL99       0.1561
    130  C         35.1580   29.6790    2.6000 C.2    99  VAL99       0.2260
    131  O         34.3890   30.5100    3.0890 O.2    99  VAL99      -0.2867
    132  CB        36.6790   29.9180    4.6320 C.3    99  VAL99       0.0252
    133  CG1       37.4160   29.1170    5.6990 C.3    99  VAL99       0.0019
    134  CG2       37.5340   31.0830    4.1500 C.3    99  VAL99       0.0019
    135  N         31.0090   29.2780    3.5430 N.3   102  ILE102     -0.1231
    136  CA        30.4800   30.1250    4.6160 C.3   102  ILE102      0.1692
    137  C         30.5210   31.6130    4.2540 C.2   102  ILE102      0.2592
    138  O         29.5840   32.3570    4.5570 O.2   102  ILE102     -0.2718
    139  CB        31.1610   29.8370    6.0060 C.3   102  ILE102      0.0266
    140  CG1       30.4060   30.5270    7.1490 C.3   102  ILE102      0.0019
    141  CG2       32.6480   30.2180    6.0160 C.3   102  ILE102      0.0020
    142  CD1       28.9810   30.0500    7.3240 C.3   102  ILE102      0.0001
    143  N         31.6000   32.0290    3.5910 N.am  103  PHE103     -0.1976
    144  CA        31.7640   33.4080    3.1440 C.3   103  PHE103      0.1639
    145  C         30.6320   33.7910    2.1910 C.2   103  PHE103      0.2290
    146  O         30.0790   34.8930    2.2840 O.2   103  PHE103     -0.2864
    147  CB        33.1130   33.5580    2.4580 C.3   103  PHE103      0.0560
    148  CG        33.5690   34.9790    2.2960 C.ar  103  PHE103     -0.0200
    149  CD1       34.4070   35.5600    3.2370 C.ar  103  PHE103     -0.0042
    150  CD2       33.2010   35.7200    1.1790 C.ar  103  PHE103     -0.0042
    151  CE1       34.8570   36.8630    3.0750 C.ar  103  PHE103     -0.0003
    152  CE2       33.6420   37.0220    1.0110 C.ar  103  PHE103     -0.0003
    153  CZ        34.4700   37.5950    1.9590 C.ar  103  PHE103     -0.0000
    154  N         27.3500   34.3280    4.1200 N.3   106  VAL106     -0.1245
    155  CA        27.3110   35.6760    4.6810 C.3   106  VAL106      0.1561
    156  C         26.8600   36.6580    3.6120 C.2   106  VAL106      0.2260
    157  O         25.9230   37.4250    3.8250 O.2   106  VAL106     -0.2867
    158  CB        28.6840   36.1080    5.2430 C.3   106  VAL106      0.0252
    159  CG1       28.6380   37.5470    5.7360 C.3   106  VAL106      0.0019
    160  CG2       29.1030   35.1840    6.3670 C.3   106  VAL106      0.0019
    161  N         24.4390   31.0040   10.5010 N.3   185  ILE185     -0.1245
    162  CA        25.7740   31.4010   10.0600 C.3   185  ILE185      0.1561
    163  C         26.7510   31.4590   11.2380 C.2   185  ILE185      0.2260
    164  O         27.8910   31.0050   11.1240 O.2   185  ILE185     -0.2867
    165  CB        25.7330   32.7480    9.2860 C.3   185  ILE185      0.0252
    166  CG1       25.0010   32.5580    7.9490 C.3   185  ILE185      0.0019
    167  CG2       27.1410   33.3160    9.0700 C.3   185  ILE185      0.0019
    168  CD1       24.3420   33.8200    7.4010 C.3   185  ILE185      0.0001
    169  N         30.1090   29.3670   11.6240 N.3   189  CYS189     -0.1235
    170  CA        31.3050   30.1850   11.7850 C.3   189  CYS189      0.1677
    171  C         32.1090   29.7720   13.0220 C.2   189  CYS189      0.2270
    172  O         33.3380   29.7770   12.9920 O.2   189  CYS189     -0.2867
    173  CB        30.9230   31.6580   11.8650 C.3   189  CYS189      0.0956
    174  SG        32.3220   32.7540   11.9410 S.3   189  CYS189     -0.0801
    175  N         34.2220   26.4220   12.2580 N.3   192  HIS192     -0.1226
    176  CA        35.4690   26.7420   11.5600 C.3   192  HIS192      0.1752
    177  C         36.5420   27.2120   12.5280 C.2   192  HIS192      0.2595
    178  O         37.6760   26.7300   12.4860 O.2   192  HIS192     -0.2718
    179  CB        35.2340   27.8370   10.5210 C.3   192  HIS192      0.0759
    180  CG        34.6500   27.3470    9.2350 C.ar  192  HIS192      0.0818
    181  ND1       33.2920   27.2520    9.0230 N.ar  192  HIS192     -0.2268
    182  CD2       35.2390   26.9480    8.0830 C.ar  192  HIS192      0.1154
    183  CE1       33.0700   26.8070    7.7990 C.ar  192  HIS192      0.1986
    184  NE2       34.2350   26.6150    7.2080 N.ar  192  HIS192     -0.2212
    185  N         36.1680   28.1530   13.3950 N.am  193  LEU193     -0.1980
    186  CA        37.0740   28.7180   14.3930 C.3   193  LEU193      0.1596
    187  C         37.6620   27.6520   15.3140 C.2   193  LEU193      0.2287
    188  O         38.8580   27.6760   15.5970 O.2   193  LEU193     -0.2864
    189  CB        36.3770   29.8190   15.1990 C.3   193  LEU193      0.0297
    190  CG        36.2360   31.1940   14.5370 C.3   193  LEU193      0.0022
    191  CD1       35.0710   31.9670   15.1350 C.3   193  LEU193      0.0001
    192  CD2       37.5210   32.0000   14.6500 C.3   193  LEU193      0.0001
    193  N         40.2940   25.6350   13.1810 N.3   196  PHE196     -0.1241
    194  CA        41.5570   26.3800   13.0610 C.3   196  PHE196      0.1605
    195  C         42.4060   26.2260   14.3250 C.2   196  PHE196      0.2264
    196  O         43.6240   26.0510   14.2460 O.2   196  PHE196     -0.2867
    197  CB        41.3240   27.8780   12.8030 C.3   196  PHE196      0.0534
    198  CG        40.4510   28.1820   11.6170 C.ar  196  PHE196     -0.0203
    199  CD1       40.5620   27.4610   10.4340 C.ar  196  PHE196     -0.0042
    200  CD2       39.5380   29.2300   11.6760 C.ar  196  PHE196     -0.0042
    201  CE1       39.7530   27.7590    9.3410 C.ar  196  PHE196     -0.0003
    202  CE2       38.7290   29.5360   10.5890 C.ar  196  PHE196     -0.0003
    203  CZ        38.8370   28.7990    9.4190 C.ar  196  PHE196     -0.0000
@<TRIPOS>BOND
     1   152   150   ar
     2   152   153   ar
     3   150   148   ar
     4   107   108    1
     5   153   151   ar
     6   145   146    2
     7   145   144    1
     8   148   147    1
     9   148   149   ar
    10   147   144    1
    11   130   131    2
    12   130   129    1
    13   128   129    1
    14   151   149   ar
    15   108   109    1
    16   108   111    1
    17   144   143    1
    18   110   109    2
    19   129   132    1
    20   135   136    1
    21   143   137   am
    22   156   157    2
    23   156   155    1
    24   154   155    1
    25   134   132    1
    26   113   111    1
    27   137   138    2
    28   137   136    1
    29   111   112    1
    30   112   114    1
    31   136   139    1
    32   132   133    1
    33   155   158    1
    34    99    98    2
    35   158   159    1
    36   158   160    1
    37    98    97    1
    38   139   141    1
    39   139   140    1
    40     1     2    1
    41     7     5    1
    42    15    13    1
    43   115   116    1
    44   140   142    1
    45    97    96    1
    46    97   100    1
    47    88    87    2
    48   184   183   ar
    49   184   182   ar
    50   120   121    1
    51   120   119    1
    52   120   122    1
    53    13    12    1
    54     5     2    1
    55     5     6    1
    56   168   166    1
    57     2     3    1
    58   183   181   ar
    59   116   119    1
    60   116   117    1
    61   166   165    1
    62    93    91   ar
    63    93    95   ar
    64   118   117    2
    65   101   100    1
    66   101   102    1
    67   182   180   ar
    68    91    90   ar
    69    87    86    1
    70   117   123   am
    71     3     4    2
    72   102   103    1
    73    12    14    1
    74    12     9    1
    75     8     9    1
    76   181   180   ar
    77   167   165    1
    78    95    94   ar
    79   180   179    1
    80   165   162    1
    81   201   203   ar
    82   201   199   ar
    83    90    89    1
    84    90    92   ar
    85   203   202   ar
    86     9    10    1
    87    86    89    1
    88    86    85    1
    89   105   104    1
    90   123   124    1
    91   103   104    2
    92   162   161    1
    93   162   163    1
    94    94    92   ar
    95    82    81    2
    96    74    73    2
    97   199   198   ar
    98   179   176    1
    99   202   200   ar
   100    77    75    1
   101   104   106    1
   102    85    81   am
   103   124   125    1
   104   124   127    1
   105   125   126    2
   106    10    16   am
   107    10    11    2
   108    81    80    1
   109   164   163    2
   110    16    17    1
   111    73    72    1
   112   176   175    1
   113   176   177    1
   114   198   200   ar
   115   198   197    1
   116   169   170    1
   117    26    23    1
   118   170   173    1
   119   170   171    1
   120   173   174    1
   121    75    72    1
   122    75    76    1
   123    72    71    1
   124    76    78    1
   125    80    79    1
   126    80    83    1
   127   178   177    2
   128   177   185   am
   129    21    20    1
   130   197   194    1
   131    17    20    1
   132    17    18    1
   133    66    65    2
   134    22    23    1
   135   172   171    2
   136    23    24    1
   137   194   193    1
   138   194   195    1
   139   185   186    1
   140    71    65   am
   141    83    84    1
   142    18    19    2
   143    65    64    1
   144    24    27   am
   145    24    25    2
   146    27    28    1
   147   196   195    2
   148   186   189    1
   149   186   187    1
   150   190   192    1
   151   190   191    1
   152   190   189    1
   153    31    28    1
   154    37    38    1
   155    37    36    1
   156    28    29    1
   157    58    57    2
   158    40    38   am
   159    38    39    2
   160    64    67    1
   161    64    63    1
   162   187   188    2
   163    67    68    1
   164    61    60    2
   165    57    56    1
   166    36    33    1
   167    29    30    2
   168    59    60    1
   169    59    56    1
   170    60    62   am
   171    56    55    1
   172    68    69    1
   173    68    70    1
   174    32    33    1
   175    33    34    1
   176    44    43    2
   177    55    43   am
   178    53    54   ar
   179    53    51   ar
   180    43    42    1
   181    34    35    2
   182    54    52   ar
   183    51    48   ar
   184    52    50   ar
   185    48    50   ar
   186    48    46   ar
   187    42    45    1
   188    42    41    1
   189    50    49   ar
   190    45    46    1
   191    46    47   ar
   192    49    47   ar
