@<TRIPOS>MOLECULE
tmp/2zy1A00.pdb
 188 176 0 0 0
SMALL
GASTEIGER

@<TRIPOS>ATOM
      1  N         19.5100   59.7420   43.7960 N.3    22  PHE22      -0.1241
      2  CA        18.0590   59.6570   43.9480 C.3    22  PHE22       0.1605
      3  C         17.6110   59.5690   45.3950 C.2    22  PHE22       0.2264
      4  O         16.5690   60.1350   45.7450 O.2    22  PHE22      -0.2867
      5  CB        17.5070   58.4980   43.0860 C.3    22  PHE22       0.0534
      6  CG        17.8030   58.6700   41.6050 C.ar   22  PHE22      -0.0203
      7  CD1       17.6850   59.9140   41.0030 C.ar   22  PHE22      -0.0042
      8  CD2       18.1880   57.5980   40.8270 C.ar   22  PHE22      -0.0042
      9  CE1       17.9400   60.0840   39.6490 C.ar   22  PHE22      -0.0003
     10  CE2       18.4470   57.7470   39.4670 C.ar   22  PHE22      -0.0003
     11  CZ        18.3160   59.0120   38.8690 C.ar   22  PHE22      -0.0000
     12  N         14.8860   62.0710   46.7720 N.3    26  PHE26      -0.1241
     13  CA        13.5960   61.5120   47.1790 C.3    26  PHE26       0.1605
     14  C         13.3810   61.3490   48.6680 C.2    26  PHE26       0.2264
     15  O         12.2230   61.3560   49.1140 O.2    26  PHE26      -0.2867
     16  CB        13.2830   60.2220   46.4180 C.3    26  PHE26       0.0534
     17  CG        13.0500   60.4600   44.9510 C.ar   26  PHE26      -0.0203
     18  CD1       11.9570   61.2060   44.5180 C.ar   26  PHE26      -0.0042
     19  CD2       13.9250   59.9540   44.0040 C.ar   26  PHE26      -0.0042
     20  CE1       11.7500   61.4350   43.1440 C.ar   26  PHE26      -0.0003
     21  CE2       13.7280   60.1730   42.6490 C.ar   26  PHE26      -0.0003
     22  CZ        12.6380   60.9190   42.2140 C.ar   26  PHE26      -0.0000
     23  N         11.8060   51.5910   43.8680 N.3    41  TYR41      -0.1241
     24  CA        13.2090   51.5470   43.4550 C.3    41  TYR41       0.1605
     25  C         13.8610   50.1960   43.8160 C.2    41  TYR41       0.2264
     26  O         14.5680   49.6120   42.9770 O.2    41  TYR41      -0.2867
     27  CB        14.0270   52.6820   44.0750 C.3    41  TYR41       0.0534
     28  CG        15.4630   52.6740   43.5930 C.ar   41  TYR41      -0.0201
     29  CD1       16.3970   51.7920   44.1460 C.ar   41  TYR41      -0.0009
     30  CD2       15.8580   53.4880   42.5300 C.ar   41  TYR41      -0.0009
     31  CE1       17.7380   51.6970   43.6430 C.ar   41  TYR41       0.0417
     32  CE2       17.1860   53.3950   42.0040 C.ar   41  TYR41       0.0417
     33  CZ        18.1040   52.4900   42.5760 C.ar   41  TYR41       0.1957
     34  OH        19.3650   52.3580   42.0380 O.3    41  TYR41      -0.2866
     35  N         12.8130   47.5800   41.3760 N.3    44  CYS44      -0.1221
     36  CA        13.4660   47.7110   40.0830 C.3    44  CYS44       0.1808
     37  C         14.9570   47.3340   40.1480 C.2    44  CYS44       0.2601
     38  O         15.5180   46.7530   39.1910 O.2    44  CYS44      -0.2717
     39  CB        13.3090   49.1390   39.5370 C.3    44  CYS44       0.0970
     40  SG        11.5370   49.4600   39.1580 S.3    44  CYS44      -0.0800
     41  N         15.5790   47.6670   41.2610 N.am   45  ARG45      -0.1979
     42  CA        17.0070   47.3600   41.4530 C.3    45  ARG45       0.1597
     43  C         17.2180   45.8310   41.4220 C.2    45  ARG45       0.2287
     44  O         18.1580   45.3230   40.7790 O.2    45  ARG45      -0.2864
     45  CB        17.4770   47.9370   42.7940 C.3    45  ARG45       0.0334
     46  CG        18.9850   47.7920   43.0820 C.3    45  ARG45       0.0492
     47  CD        19.7600   48.8420   42.2430 C.3    45  ARG45       0.2205
     48  NE        20.1530   48.3010   40.9590 N.pl3  45  ARG45      -0.0865
     49  CZ        20.3190   49.0100   39.8460 C.cat  45  ARG45       0.5346
     50  NH1       20.0960   50.3430   39.8290 N.pl3  45  ARG45       0.1354
     51  NH2       20.7630   48.3870   38.7620 N.pl3  45  ARG45       0.1354
     52  N         16.8130   44.6520   37.9390 N.3    48  ASP48      -0.1239
     53  CA        17.9360   45.0670   37.1000 C.3    48  ASP48       0.1674
     54  C         19.1430   44.1680   37.3310 C.2    48  ASP48       0.2266
     55  O         19.9040   43.8880   36.3890 O.2    48  ASP48      -0.2867
     56  CB        18.4420   46.4830   37.4430 C.3    48  ASP48       0.1410
     57  CG        17.4650   47.6010   37.0850 C.2    48  ASP48       0.3668
     58  OD1       16.5980   47.4330   36.2080 O.co2  48  ASP48      -0.2456
     59  OD2       17.5870   48.6720   37.7180 O.co2  48  ASP48      -0.2456
     60  N         15.5480   50.8100   24.6040 N.3   124  TYR124     -0.1241
     61  CA        16.1630   50.2400   25.7940 C.3   124  TYR124      0.1605
     62  C         16.0380   51.2190   26.9690 C.2   124  TYR124      0.2264
     63  O         15.7240   50.7910   28.0920 O.2   124  TYR124     -0.2867
     64  CB        17.6420   49.9560   25.5270 C.3   124  TYR124      0.0534
     65  CG        18.3490   49.4870   26.7480 C.ar  124  TYR124     -0.0201
     66  CD1       19.1180   50.3710   27.5140 C.ar  124  TYR124     -0.0009
     67  CD2       18.2520   48.1760   27.1540 C.ar  124  TYR124     -0.0009
     68  CE1       19.7590   49.9510   28.6610 C.ar  124  TYR124      0.0417
     69  CE2       18.9090   47.7330   28.3120 C.ar  124  TYR124      0.0417
     70  CZ        19.6450   48.6190   29.0530 C.ar  124  TYR124      0.1957
     71  OH        20.2470   48.1800   30.2240 O.3   124  TYR124     -0.2866
     72  N         14.2560   50.1490   30.5910 N.3   128  VAL128     -0.1231
     73  CA        14.8340   50.0730   31.9350 C.3   128  VAL128      0.1692
     74  C         14.6490   51.2860   32.8200 C.2   128  VAL128      0.2591
     75  O         14.8960   51.2010   34.0230 O.2   128  VAL128     -0.2718
     76  CB        16.3590   49.7350   31.8640 C.3   128  VAL128      0.0266
     77  CG1       16.5620   48.5260   31.0080 C.3   128  VAL128      0.0020
     78  CG2       17.1090   50.9270   31.2790 C.3   128  VAL128      0.0020
     79  N         14.1350   52.3840   32.2510 N.am  129  ALA129     -0.1980
     80  CA        14.0160   53.6150   33.0300 C.3   129  ALA129      0.1597
     81  C         12.7190   54.4110   32.7820 C.2   129  ALA129      0.2287
     82  O         12.1270   54.9670   33.7340 O.2   129  ALA129     -0.2864
     83  CB        15.2350   54.4740   32.7560 C.3   129  ALA129      0.0319
     84  N         10.2280   52.8400   34.8990 N.3   132  VAL132     -0.1231
     85  CA        10.2780   53.2290   36.3270 C.3   132  VAL132      0.1692
     86  C          9.5960   54.5880   36.4940 C.2   132  VAL132      0.2592
     87  O          8.8780   54.7850   37.4500 O.2   132  VAL132     -0.2718
     88  CB        11.7480   53.3250   36.8260 C.3   132  VAL132      0.0266
     89  CG1       11.7620   53.6710   38.3200 C.3   132  VAL132      0.0020
     90  CG2       12.4650   51.9750   36.5370 C.3   132  VAL132      0.0020
     91  N          9.8190   55.5090   35.5450 N.am  133  GLY133     -0.1957
     92  CA         9.1140   56.7940   35.5880 C.3   133  GLY133      0.1869
     93  C          7.5980   56.5780   35.5700 C.2   133  GLY133      0.2309
     94  O          6.8710   57.2390   36.3040 O.2   133  GLY133     -0.2863
     95  N          6.4620   55.3020   38.9890 N.3   136  LEU136     -0.1245
     96  CA         6.4920   56.3600   39.9860 C.3   136  LEU136      0.1561
     97  C          5.4160   57.4580   39.8380 C.2   136  LEU136      0.2260
     98  O          5.1540   58.2060   40.7930 O.2   136  LEU136     -0.2867
     99  CB         7.8770   57.0580   39.9520 C.3   136  LEU136      0.0270
    100  CG         9.0650   56.2330   40.5060 C.3   136  LEU136      0.0019
    101  CD1       10.3590   56.9160   40.1140 C.3   136  LEU136      0.0001
    102  CD2        8.9450   56.0880   42.0000 C.3   136  LEU136      0.0001
    103  N          4.1220   60.5350   42.6200 N.3   140  LEU140     -0.1245
    104  CA         4.5850   61.9040   42.4390 C.3   140  LEU140      0.1561
    105  C          3.5710   62.9220   41.9580 C.2   140  LEU140      0.2260
    106  O          3.9130   64.0840   41.7910 O.2   140  LEU140     -0.2867
    107  CB         5.7860   61.9090   41.4920 C.3   140  LEU140      0.0270
    108  CG         6.8910   60.9640   41.9730 C.3   140  LEU140      0.0019
    109  CD1        7.9690   60.9100   40.8960 C.3   140  LEU140      0.0001
    110  CD2        7.4390   61.3930   43.3380 C.3   140  LEU140      0.0001
    111  N          7.1620   61.8910   33.1410 N.3   152  ALA152     -0.1245
    112  CA         7.9210   61.0170   34.0290 C.3   152  ALA152      0.1562
    113  C          8.7260   60.0320   33.1820 C.2   152  ALA152      0.2260
    114  O          9.8600   59.6560   33.5410 O.2   152  ALA152     -0.2867
    115  CB         6.9500   60.1870   34.9800 C.3   152  ALA152      0.0290
    116  N         11.6830   61.8190   31.5860 N.3   155  LEU155     -0.1231
    117  CA        12.7420   62.0970   32.5560 C.3   155  LEU155      0.1693
    118  C         13.5320   60.8190   32.8180 C.2   155  LEU155      0.2592
    119  O         14.7560   60.8230   32.8410 O.2   155  LEU155     -0.2718
    120  CB        12.1500   62.6400   33.8660 C.3   155  LEU155      0.0284
    121  CG        13.1290   62.9030   35.0590 C.3   155  LEU155      0.0019
    122  CD1       14.2440   63.8470   34.5920 C.3   155  LEU155      0.0001
    123  CD2       12.3900   63.5670   36.2330 C.3   155  LEU155      0.0001
    124  N         12.8270   59.7120   33.0240 N.am  156  GLY156     -0.1957
    125  CA        13.4820   58.4520   33.2610 C.3   156  GLY156      0.1869
    126  C         14.4040   58.0990   32.1230 C.2   156  GLY156      0.2309
    127  O         15.5440   57.6910   32.3680 O.2   156  GLY156     -0.2863
    128  N         17.5640   60.2270   32.2120 N.3   159  LEU159     -0.1231
    129  CA        18.4470   59.8500   33.3140 C.3   159  LEU159      0.1693
    130  C         19.1840   58.5890   32.9010 C.2   159  LEU159      0.2591
    131  O         20.3790   58.4640   33.2000 O.2   159  LEU159     -0.2718
    132  CB        17.6450   59.6220   34.6330 C.3   159  LEU159      0.0284
    133  CG        16.8690   60.8740   35.0880 C.3   159  LEU159      0.0019
    134  CD1       15.8530   60.5090   36.1920 C.3   159  LEU159      0.0001
    135  CD2       17.8420   61.9340   35.5930 C.3   159  LEU159      0.0001
    136  N         18.5130   57.6610   32.2060 N.am  160  GLN160     -0.1979
    137  CA        19.2320   56.4500   31.7680 C.3   160  GLN160      0.1601
    138  C         20.3220   56.8370   30.7380 C.2   160  GLN160      0.2287
    139  O         21.3870   56.2630   30.7290 O.2   160  GLN160     -0.2864
    140  CB        18.2770   55.4490   31.1160 C.3   160  GLN160      0.0394
    141  CG        18.9220   54.1000   30.8340 C.3   160  GLN160      0.0908
    142  CD        19.4590   53.4780   32.1170 C.2   160  GLN160      0.2608
    143  OE1       18.7970   53.4800   33.1580 O.2   160  GLN160     -0.2717
    144  NE2       20.6510   52.9210   32.0410 N.am  160  GLN160     -0.0878
    145  N         23.2050   58.1180   32.5870 N.3   163  ASN163     -0.1240
    146  CA        23.8680   56.9700   33.1840 C.3   163  ASN163      0.1653
    147  C         24.8280   56.2760   32.1710 C.2   163  ASN163      0.2266
    148  O         25.9810   55.9380   32.4730 O.2   163  ASN163     -0.2867
    149  CB        22.7730   56.0010   33.6630 C.3   163  ASN163      0.1155
    150  CG        23.3130   54.8110   34.4240 C.2   163  ASN163      0.2627
    151  OD1       23.4690   54.8680   35.6410 O.2   163  ASN163     -0.2716
    152  ND2       23.5910   53.7270   33.7230 N.am  163  ASN163     -0.0877
    153  N          3.5040   67.5130   38.2140 N.3   228  PHE228     -0.1241
    154  CA         3.7170   66.7830   39.4640 C.3   228  PHE228      0.1605
    155  C          3.1440   67.5400   40.6440 C.2   228  PHE228      0.2264
    156  O          2.8900   68.7280   40.5280 O.2   228  PHE228     -0.2867
    157  CB         5.2120   66.5350   39.6910 C.3   228  PHE228      0.0534
    158  CG         5.8260   65.6920   38.6280 C.ar  228  PHE228     -0.0203
    159  CD1        5.4250   64.3760   38.4840 C.ar  228  PHE228     -0.0042
    160  CD2        6.7650   66.2140   37.7450 C.ar  228  PHE228     -0.0042
    161  CE1        5.9480   63.5860   37.4740 C.ar  228  PHE228     -0.0003
    162  CE2        7.3050   65.4210   36.7190 C.ar  228  PHE228     -0.0003
    163  CZ         6.8900   64.1050   36.5860 C.ar  228  PHE228     -0.0000
    164  N         11.8200   66.5160   42.3960 N.3   236  ILE236     -0.1245
    165  CA        12.0800   65.9440   41.0850 C.3   236  ILE236      0.1561
    166  C         13.0840   66.8430   40.4060 C.2   236  ILE236      0.2260
    167  O         14.0250   66.3870   39.7650 O.2   236  ILE236     -0.2867
    168  CB        10.7720   65.8590   40.2650 C.3   236  ILE236      0.0252
    169  CG1        9.8590   64.8060   40.9250 C.3   236  ILE236      0.0019
    170  CG2       11.0720   65.5990   38.7810 C.3   236  ILE236      0.0019
    171  CD1        8.3930   64.8710   40.4720 C.3   236  ILE236      0.0001
    172  N         16.4270   65.8940   41.9640 N.3   239  ALA239     -0.1245
    173  CA        16.9350   64.6180   41.4670 C.3   239  ALA239      0.1562
    174  C         17.4960   64.7480   40.0550 C.2   239  ALA239      0.2260
    175  O         18.5840   64.2540   39.7610 O.2   239  ALA239     -0.2867
    176  CB        15.7960   63.5340   41.5120 C.3   239  ALA239      0.0290
    177  N         21.4800   64.6060   38.8760 N.3   243  TYR243     -0.1241
    178  CA        21.9200   63.5860   37.9580 C.3   243  TYR243      0.1605
    179  C         22.5320   64.2010   36.7140 C.2   243  TYR243      0.2264
    180  O         23.5630   63.7400   36.2290 O.2   243  TYR243     -0.2867
    181  CB        20.7650   62.6490   37.5670 C.3   243  TYR243      0.0534
    182  CG        21.2030   61.1970   37.5040 C.ar  243  TYR243     -0.0201
    183  CD1       21.2220   60.5210   36.3030 C.ar  243  TYR243     -0.0009
    184  CD2       21.5660   60.5140   38.6520 C.ar  243  TYR243     -0.0009
    185  CE1       21.5890   59.1830   36.2430 C.ar  243  TYR243      0.0417
    186  CE2       21.9430   59.1640   38.6180 C.ar  243  TYR243      0.0417
    187  CZ        21.9480   58.5100   37.4050 C.ar  243  TYR243      0.1957
    188  OH        22.2790   57.1660   37.3090 O.3   243  TYR243     -0.2866
@<TRIPOS>BOND
     1    60    61    1
     2    64    61    1
     3    64    65    1
     4    61    62    1
     5    65    67   ar
     6    65    66   ar
     7    62    63    2
     8    67    69   ar
     9    66    68   ar
    10    69    70   ar
    11    68    70   ar
    12    70    71    1
    13    72    73    1
    14   139   138    2
    15   138   137    1
    16   141   140    1
    17   141   142    1
    18    77    76    1
    19   140   137    1
    20    78    76    1
    21   116   117    1
    22   137   136    1
    23    76    73    1
    24    73    74    1
    25   144   142   am
    26   142   143    2
    27   126   127    2
    28   126   125    1
    29   147   148    2
    30   147   146    1
    31   136   130   am
    32   128   129    1
    33    79    74   am
    34    79    80    1
    35   117   118    1
    36   117   120    1
    37   145   146    1
    38    83    80    1
    39    81    80    1
    40    81    82    2
    41   118   119    2
    42   118   124   am
    43    74    75    2
    44   130   131    2
    45   130   129    1
    46   124   125    1
    47   111   112    1
    48   113   114    2
    49   113   112    1
    50   146   149    1
    51   129   132    1
    52   149   150    1
    53   152   150   am
    54   120   121    1
    55   112   115    1
    56   150   151    2
    57   122   121    1
    58   132   133    1
    59    84    85    1
    60   121   123    1
    61   133   135    1
    62   133   134    1
    63    91    92    1
    64    91    86   am
    65    93    92    1
    66    93    94    2
    67    58    57   ar
    68   180   179    2
    69   185   183   ar
    70   185   187   ar
    71   183   182   ar
    72    85    86    1
    73    85    88    1
    74    55    54    2
    75    86    87    2
    76    90    88    1
    77   163   162   ar
    78   163   161   ar
    79   179   178    1
    80   162   160   ar
    81    88    89    1
    82    57    56    1
    83    57    59   ar
    84    53    54    1
    85    53    56    1
    86    53    52    1
    87   188   187    1
    88   187   186   ar
    89   161   159   ar
    90   182   181    1
    91   182   184   ar
    92   181   178    1
    93   160   158   ar
    94   178   177    1
    95   153   154    1
    96   159   158   ar
    97   186   184   ar
    98   158   157    1
    99    51    49    1
   100   170   168    1
   101    11    10   ar
   102    11     9   ar
   103    95    96    1
   104    40    39    1
   105    38    37    2
   106   154   157    1
   107   154   155    1
   108    10     8   ar
   109    39    36    1
   110     9     7   ar
   111   175   174    2
   112   167   166    2
   113    50    49    1
   114    97    96    1
   115    97    98    2
   116    49    48    2
   117    99    96    1
   118    99   100    1
   119   174   173    1
   120    36    37    1
   121    36    35    1
   122   101   100    1
   123    37    41   am
   124   168   169    1
   125   168   165    1
   126   166   165    1
   127   171   169    1
   128   100   102    1
   129   156   155    2
   130    44    43    2
   131     8     6   ar
   132   109   108    1
   133    48    47    1
   134     7     6   ar
   135   165   164    1
   136    41    42    1
   137    43    42    1
   138    42    45    1
   139   173   176    1
   140   173   172    1
   141   107   108    1
   142   107   104    1
   143     6     5    1
   144   106   105    2
   145   105   104    1
   146   108   110    1
   147    32    30   ar
   148    32    33   ar
   149    34    33    1
   150    22    21   ar
   151    22    20   ar
   152    47    46    1
   153   104   103    1
   154    30    28   ar
   155    33    31   ar
   156    21    19   ar
   157    45    46    1
   158    26    25    2
   159     5     2    1
   160    20    18   ar
   161    24    25    1
   162    24    23    1
   163    24    27    1
   164    28    27    1
   165    28    29   ar
   166    31    29   ar
   167     1     2    1
   168     2     3    1
   169    19    17   ar
   170    18    17   ar
   171    17    16    1
   172     3     4    2
   173    16    13    1
   174    12    13    1
   175    13    14    1
   176    14    15    2
