@<TRIPOS>MOLECULE
tmp/2zy4F00.pdb
 142 133 0 0 0
SMALL
GASTEIGER

@<TRIPOS>ATOM
      1  N        169.8330   93.5810   89.5080 N.3    32  ARG32      -0.1245
      2  CA       168.6050   93.1200   90.1810 C.3    32  ARG32       0.1563
      3  C        167.3220   93.3460   89.3860 C.2    32  ARG32       0.2260
      4  O        167.2870   94.1630   88.4800 O.2    32  ARG32      -0.2867
      5  CB       168.4790   93.8160   91.5310 C.3    32  ARG32       0.0307
      6  CG       168.5100   95.3240   91.3840 C.3    32  ARG32       0.0489
      7  CD       168.7500   95.9990   92.7100 C.3    32  ARG32       0.2205
      8  NE       170.1480   96.1000   93.0700 N.pl3  32  ARG32      -0.0865
      9  CZ       170.5780   96.5070   94.2570 C.cat  32  ARG32       0.5346
     10  NH1      169.7190   96.8330   95.2290 N.pl3  32  ARG32       0.1354
     11  NH2      171.8740   96.6440   94.4580 N.pl3  32  ARG32       0.1354
     12  N        167.8400  101.5240  102.9220 N.3   168  GLY168     -0.1210
     13  CA       167.9890  100.2990  102.1580 C.3   168  GLY168      0.1956
     14  C        169.3460   99.6260  102.3570 C.2   168  GLY168      0.2612
     15  O        170.2480  100.1810  103.0170 O.2   168  GLY168     -0.2717
     16  N        169.4950   98.4260  101.8050 N.am  169  GLY169     -0.1942
     17  CA       170.7770   97.7320  101.8790 C.3   169  GLY169      0.2014
     18  C        171.8580   98.5390  101.1650 C.2   169  GLY169      0.2639
     19  O        173.0560   98.4000  101.4290 O.2   169  GLY169     -0.2714
     20  N        171.4410   99.4100  100.2620 N.am  170  THR170     -0.1950
     21  CA       172.3790  100.2410   99.5190 C.3   170  THR170      0.1897
     22  C        173.0840  101.2110  100.4580 C.2   170  THR170      0.2313
     23  O        174.3060  101.3470  100.3980 O.2   170  THR170     -0.2863
     24  CB       171.6670  101.0500   98.4020 C.3   170  THR170      0.1794
     25  OG1      171.1750  100.1460   97.4070 O.3   170  THR170     -0.2208
     26  CG2      172.6520  102.0700   97.7460 C.3   170  THR170      0.0378
     27  N        176.5850   89.6990   92.6030 N.3   199  PHE199     -0.1241
     28  CA       176.4730   90.7800   91.6250 C.3   199  PHE199      0.1605
     29  C        177.6050   91.8010   91.6630 C.2   199  PHE199      0.2264
     30  O        178.2980   91.9800   92.6800 O.2   199  PHE199     -0.2867
     31  CB       175.0590   91.4280   91.6350 C.3   199  PHE199      0.0534
     32  CG       174.6820   92.1970   92.8900 C.ar  199  PHE199     -0.0203
     33  CD1      173.4150   92.7890   92.9700 C.ar  199  PHE199     -0.0042
     34  CD2      175.5660   92.3870   93.9470 C.ar  199  PHE199     -0.0042
     35  CE1      173.0400   93.5640   94.0840 C.ar  199  PHE199     -0.0003
     36  CE2      175.1950   93.1620   95.0630 C.ar  199  PHE199     -0.0003
     37  CZ       173.9240   93.7510   95.1220 C.ar  199  PHE199     -0.0000
     38  N        179.1260   94.4750   94.5720 N.3   202  TYR202     -0.1241
     39  CA       179.8640   93.9380   95.7000 C.3   202  TYR202      0.1605
     40  C        181.2620   93.4710   95.3550 C.2   202  TYR202      0.2264
     41  O        182.0850   93.2730   96.2640 O.2   202  TYR202     -0.2867
     42  CB       179.0790   92.8060   96.3830 C.3   202  TYR202      0.0534
     43  CG       177.8530   93.2940   97.1630 C.ar  202  TYR202     -0.0201
     44  CD1      177.4870   94.6540   97.1890 C.ar  202  TYR202     -0.0009
     45  CD2      177.0670   92.3910   97.8630 C.ar  202  TYR202     -0.0009
     46  CE1      176.3270   95.0940   97.9220 C.ar  202  TYR202      0.0417
     47  CE2      175.9320   92.8020   98.5860 C.ar  202  TYR202      0.0417
     48  CZ       175.5620   94.1450   98.6130 C.ar  202  TYR202      0.1957
     49  OH       174.4120   94.4720   99.3100 O.3   202  TYR202     -0.2866
     50  N        176.0300   86.9910  100.1430 N.3   247  VAL247     -0.1245
     51  CA       174.6310   87.3600   99.8440 C.3   247  VAL247      0.1561
     52  C        173.8880   86.0270   99.9770 C.2   247  VAL247      0.2260
     53  O        174.1480   85.0780   99.2390 O.2   247  VAL247     -0.2867
     54  CB       174.4720   87.9380   98.4240 C.3   247  VAL247      0.0252
     55  CG1      172.9850   88.1090   98.0860 C.3   247  VAL247      0.0019
     56  CG2      175.1280   89.2870   98.3580 C.3   247  VAL247      0.0019
     57  N        172.7050   85.9800   95.0050 N.3   251  ASN251     -0.1240
     58  CA       172.2860   86.6790   93.8070 C.3   251  ASN251      0.1653
     59  C        173.5560   86.7900   93.0140 C.2   251  ASN251      0.2266
     60  O        174.4130   87.5650   93.3860 O.2   251  ASN251     -0.2867
     61  CB       171.7710   88.0980   94.1130 C.3   251  ASN251      0.1155
     62  CG       171.4790   88.8810   92.8320 C.2   251  ASN251      0.2627
     63  OD1      171.5820   88.3390   91.7170 O.2   251  ASN251     -0.2716
     64  ND2      171.1050   90.1330   92.9760 N.am  251  ASN251     -0.0877
     65  N        174.1460   89.7450  103.4490 N.3   281  ASP281     -0.1239
     66  CA       173.0280   90.5030  102.8310 C.3   281  ASP281      0.1674
     67  C        171.9140   89.4650  102.5950 C.2   281  ASP281      0.2266
     68  O        171.9920   88.6940  101.6510 O.2   281  ASP281     -0.2867
     69  CB       173.4980   91.0860  101.5030 C.3   281  ASP281      0.1410
     70  CG       172.4310   91.9580  100.8110 C.2   281  ASP281      0.3668
     71  OD1      171.2280   91.8300  101.1000 O.co2 281  ASP281     -0.2456
     72  OD2      172.8150   92.7570   99.9500 O.co2 281  ASP281     -0.2456
     73  N        168.5280   89.9060  101.9360 N.3   283  VAL283     -0.1231
     74  CA       167.2990   90.4750  101.3770 C.3   283  VAL283      0.1692
     75  C        166.2900   89.4230  100.8150 C.2   283  VAL283      0.2592
     76  O        165.0540   89.5940  100.9090 O.2   283  VAL283     -0.2718
     77  CB       167.7100   91.5470  100.2990 C.3   283  VAL283      0.0266
     78  CG1      168.4790   90.8390   99.1630 C.3   283  VAL283      0.0020
     79  CG2      166.4650   92.3540   99.7430 C.3   283  VAL283      0.0020
     80  N        166.7870   88.3220  100.2710 N.am  284  TYR284     -0.1976
     81  CA       165.8900   87.3100   99.6820 C.3   284  TYR284      0.1639
     82  C        165.4430   86.1830  100.6110 C.2   284  TYR284      0.2290
     83  O        164.7760   85.2430  100.1640 O.2   284  TYR284     -0.2864
     84  CB       166.5420   86.6560   98.4440 C.3   284  TYR284      0.0560
     85  CG       166.8660   87.6150   97.3400 C.ar  284  TYR284     -0.0198
     86  CD1      168.1790   88.0380   97.1230 C.ar  284  TYR284     -0.0009
     87  CD2      165.8360   88.1620   96.5360 C.ar  284  TYR284     -0.0009
     88  CE1      168.4800   88.9860   96.1520 C.ar  284  TYR284      0.0417
     89  CE2      166.1270   89.1110   95.5460 C.ar  284  TYR284      0.0417
     90  CZ       167.4400   89.5250   95.3670 C.ar  284  TYR284      0.1957
     91  OH       167.7200   90.5200   94.4730 O.3   284  TYR284     -0.2866
     92  N        167.1290   94.1200  103.7680 N.3   307  SER307     -0.1217
     93  CA       166.3560   95.0910  103.0540 C.3   307  SER307      0.1889
     94  C        164.9240   94.6160  102.8920 C.2   307  SER307      0.2288
     95  O        164.6900   93.4170  102.6220 O.2   307  SER307     -0.2866
     96  CB       166.9630   95.3120  101.6600 C.3   307  SER307      0.2089
     97  OG       166.0900   96.1100  100.8940 O.3   307  SER307     -0.2183
     98  N        163.1070   95.8610  100.5960 N.3   309  SER309     -0.1202
     99  CA       162.8270   96.1020   99.1940 C.3   309  SER309      0.2020
    100  C        162.1310   95.0700   98.3220 C.2   309  SER309      0.2618
    101  O        161.1210   95.3500   97.6700 O.2   309  SER309     -0.2717
    102  CB       164.1050   96.5100   98.4840 C.3   309  SER309      0.2103
    103  OG       164.4710   97.7980   98.9310 O.3   309  SER309     -0.2182
    104  N        162.6450   93.8580   98.3250 N.am  310  LYS310     -0.1979
    105  CA       162.1160   92.8880   97.4030 C.3   310  LYS310      0.1596
    106  C        160.9090   92.1470   97.8450 C.2   310  LYS310      0.2287
    107  O        160.0690   91.8260   97.0340 O.2   310  LYS310     -0.2864
    108  CB       163.2110   91.8830   97.0260 C.3   310  LYS310      0.0298
    109  CG       164.4770   92.4990   96.4300 C.3   310  LYS310      0.0038
    110  CD       164.1530   93.4670   95.2570 C.3   310  LYS310      0.0206
    111  CE       165.4470   93.7400   94.4800 C.3   310  LYS310      0.1093
    112  NZ       166.4840   94.0300   95.4320 N.3   310  LYS310     -0.1314
    113  N        161.0530   98.8440   96.7770 N.3   315  THR315     -0.1218
    114  CA       162.3470   99.4010   96.3750 C.3   315  THR315      0.1862
    115  C        162.4220  100.9150   96.4560 C.2   315  THR315      0.2287
    116  O        163.4920  101.4590   96.7970 O.2   315  THR315     -0.2866
    117  CB       162.7260   98.9930   94.9310 C.3   315  THR315      0.1770
    118  OG1      161.6250   99.2890   94.0580 O.3   315  THR315     -0.2211
    119  CG2      163.0610   97.4580   94.8620 C.3   315  THR315      0.0375
    120  N        163.1800  102.6500  100.2650 N.3   318  ARG318     -0.1245
    121  CA       164.5630  102.6150  100.8030 C.3   318  ARG318      0.1563
    122  C        164.5640  102.3270  102.3020 C.2   318  ARG318      0.2260
    123  O        164.9140  103.1780  103.1380 O.2   318  ARG318     -0.2867
    124  CB       165.3190  103.9300  100.5250 C.3   318  ARG318      0.0307
    125  CG       164.9190  104.6530   99.2170 C.3   318  ARG318      0.0489
    126  CD       165.1040  103.8380   97.9170 C.3   318  ARG318      0.2205
    127  NE       166.4870  103.3980   97.7720 N.pl3 318  ARG318     -0.0865
    128  CZ       166.8800  102.1320   97.8530 C.cat 318  ARG318      0.5346
    129  NH1      165.9910  101.1850   98.0490 N.pl3 318  ARG318      0.1354
    130  NH2      168.1720  101.8200   97.8070 N.pl3 318  ARG318      0.1354
    131  N        165.5420   84.6140   91.0710 N.3   436  TYR436     -0.1241
    132  CA       166.2010   84.6250   89.7630 C.3   436  TYR436      0.1605
    133  C        166.2380   83.1540   89.3390 C.2   436  TYR436      0.2264
    134  O        166.4160   82.2580   90.1710 O.2   436  TYR436     -0.2867
    135  CB       167.6190   85.1950   89.7910 C.3   436  TYR436      0.0534
    136  CG       167.6750   86.6260   90.2670 C.ar  436  TYR436     -0.0201
    137  CD1      167.9940   86.9220   91.6020 C.ar  436  TYR436     -0.0009
    138  CD2      167.3410   87.6820   89.4160 C.ar  436  TYR436     -0.0009
    139  CE1      167.9690   88.2590   92.0840 C.ar  436  TYR436      0.0417
    140  CE2      167.3140   89.0190   89.9030 C.ar  436  TYR436      0.0417
    141  CZ       167.6200   89.2790   91.2360 C.ar  436  TYR436      0.1957
    142  OH       167.4930   90.5540   91.7510 O.3   436  TYR436     -0.2866
@<TRIPOS>BOND
     1     4     3    2
     2   133   132    1
     3   133   134    2
     4     3     2    1
     5   138   140   ar
     6   138   136   ar
     7     1     2    1
     8   132   135    1
     9   132   131    1
    10   135   136    1
    11   140   141   ar
    12     2     5    1
    13   136   137   ar
    14   141   142    1
    15   141   139   ar
    16     6     5    1
    17     6     7    1
    18   137   139   ar
    19    28    31    1
    20    28    29    1
    21    28    27    1
    22    31    32    1
    23    29    30    2
    24    63    62    2
    25     7     8    1
    26    62    64   am
    27    62    61    1
    28    32    33   ar
    29    32    34   ar
    30    33    35   ar
    31    59    60    2
    32    59    58    1
    33     8     9    2
    34    58    61    1
    35    58    57    1
    36    34    36   ar
    37   118   117    1
    38    35    37   ar
    39     9    11    1
    40     9    10    1
    41    91    90    1
    42   111   110    1
    43   111   112    1
    44    38    39    1
    45   119   117    1
    46   117   114    1
    47    36    37   ar
    48   110   109    1
    49    40    39    1
    50    40    41    2
    51    90    89   ar
    52    90    88   ar
    53    89    87   ar
    54    39    42    1
    55    88    86   ar
    56   114   115    1
    57   114   113    1
    58    42    43    1
    59   109   108    1
    60   115   116    2
    61    87    85   ar
    62   108   105    1
    63   107   106    2
    64    86    85   ar
    65    43    44   ar
    66    43    45   ar
    67    44    46   ar
    68    85    84    1
    69   105   106    1
    70   105   104    1
    71    25    24    1
    72   101   100    2
    73    26    24    1
    74   127   128    2
    75   127   126    1
    76   130   128    1
    77   128   129    1
    78    45    47   ar
    79   126   125    1
    80    46    48   ar
    81    55    54    1
    82   100   104   am
    83   100    99    1
    84    56    54    1
    85    24    21    1
    86    54    51    1
    87    84    81    1
    88   102   103    1
    89   102    99    1
    90    47    48   ar
    91    48    49    1
    92    78    77    1
    93    99    98    1
    94   125   124    1
    95    53    52    2
    96    21    20    1
    97    21    22    1
    98    81    80    1
    99    81    82    1
   100    79    77    1
   101    51    52    1
   102    51    50    1
   103    72    70   ar
   104    83    82    2
   105    20    18   am
   106   120   121    1
   107    80    75   am
   108    77    74    1
   109    23    22    2
   110   124   121    1
   111   121   122    1
   112    70    71   ar
   113    70    69    1
   114    75    76    2
   115    75    74    1
   116    97    96    1
   117    18    19    2
   118    18    17    1
   119    74    73    1
   120    69    66    1
   121    68    67    2
   122    96    93    1
   123    16    17    1
   124    16    14   am
   125    13    14    1
   126    13    12    1
   127   122   123    2
   128    14    15    2
   129    67    66    1
   130    95    94    2
   131    66    65    1
   132    94    93    1
   133    93    92    1
