@<TRIPOS>MOLECULE
tmp/2zybA00.pdb
 158 148 0 0 0
SMALL
GASTEIGER

@<TRIPOS>ATOM
      1  N         30.4780   38.2150    2.7790 N.3    21  LEU21      -0.1231
      2  CA        30.6470   37.1880    3.7840 C.3    21  LEU21       0.1696
      3  C         30.5230   35.8160    3.1490 C.2    21  LEU21       0.2631
      4  O         31.0830   34.8200    3.6580 O.2    21  LEU21      -0.2714
      5  CB        29.5760   37.3410    4.8270 C.3    21  LEU21       0.0284
      6  CG        29.5500   38.6820    5.5730 C.3    21  LEU21       0.0019
      7  CD1       28.4290   38.6050    6.5740 C.3    21  LEU21       0.0001
      8  CD2       30.9050   39.1030    6.2510 C.3    21  LEU21       0.0001
      9  N         29.7960   35.7540    2.0210 N.am   22  GLY22      -0.1732
     10  CA        29.6020   34.4880    1.2970 C.2    22  GLY22       0.1340
     11  C         28.8830   34.5430   -0.0480 C.2    22  GLY22       0.2521
     12  O         28.2360   35.5610   -0.4220 O.2    22  GLY22      -0.2816
     13  N         25.8600   37.1880    0.4310 N.3    29  VAL29      -0.1245
     14  CA        25.6010   37.9510    1.6800 C.3    29  VAL29       0.1561
     15  C         26.7140   38.9210    2.0020 C.2    29  VAL29       0.2260
     16  O         27.9100   38.5710    1.9110 O.2    29  VAL29      -0.2867
     17  CB        25.4240   37.0470    2.9300 C.3    29  VAL29       0.0252
     18  CG1       25.0070   37.9230    4.1600 C.3    29  VAL29       0.0019
     19  CG2       24.3650   35.9390    2.6700 C.3    29  VAL29       0.0019
     20  N         23.5060   43.3640    7.4800 N.3    41  ALA41      -0.1231
     21  CA        23.7690   42.2820    6.5030 C.3    41  ALA41       0.1694
     22  C         22.7240   42.3280    5.3880 C.2    41  ALA41       0.2592
     23  O         21.5100   42.4890    5.6320 O.2    41  ALA41      -0.2718
     24  CB        23.7870   40.8690    7.1990 C.3    41  ALA41       0.0304
     25  N         23.2090   42.1330    4.1690 N.am   42  VAL42      -0.1966
     26  CA        22.3930   42.2390    2.9730 C.3    42  VAL42       0.1727
     27  C         22.4700   40.9680    2.1810 C.2    42  VAL42       0.2616
     28  O         23.5130   40.6920    1.5730 O.2    42  VAL42      -0.2715
     29  CB        22.9750   43.2880    2.0490 C.3    42  VAL42       0.0290
     30  CG1       22.2040   43.2780    0.7560 C.3    42  VAL42       0.0023
     31  CG2       22.9730   44.6720    2.7200 C.3    42  VAL42       0.0023
     32  N         21.3370   40.2940    2.0010 N.am   43  LYS43      -0.1977
     33  CA        21.2780   39.1400    1.0610 C.3    43  LYS43       0.1596
     34  C         20.7280   39.5410   -0.2850 C.2    43  LYS43       0.2287
     35  O         19.7070   40.2380   -0.3700 O.2    43  LYS43      -0.2864
     36  CB        20.4840   37.9780    1.6100 C.3    43  LYS43       0.0298
     37  CG        20.7490   36.6600    0.9050 C.3    43  LYS43       0.0038
     38  CD        20.3690   35.4420    1.8050 C.3    43  LYS43       0.0206
     39  CE        18.9130   35.0690    1.6830 C.3    43  LYS43       0.1093
     40  NZ        18.5530   34.0960    2.7730 N.3    43  LYS43      -0.1314
     41  N         10.9150   34.5590    2.4940 N.3    58  GLU58      -0.1245
     42  CA        11.7000   34.6340    3.7460 C.3    58  GLU58       0.1567
     43  C         11.4650   35.9560    4.5010 C.2    58  GLU58       0.2260
     44  O         11.0150   35.9560    5.6900 O.2    58  GLU58      -0.2867
     45  CB        13.1860   34.4600    3.4740 C.3    58  GLU58       0.0388
     46  CG        13.8210   33.5430    4.4710 C.3    58  GLU58       0.1160
     47  CD        15.3110   33.6910    4.5250 C.2    58  GLU58       0.3649
     48  OE1       15.8990   34.0970    3.4980 O.co2  58  GLU58      -0.2457
     49  OE2       15.8910   33.4030    5.5840 O.co2  58  GLU58      -0.2457
     50  N          9.6100   36.7840    8.0660 N.3    62  MET62      -0.1245
     51  CA        10.3050   37.4070    9.1490 C.3    62  MET62       0.1570
     52  C          9.5560   38.6850    9.5990 C.2    62  MET62       0.2261
     53  O          9.6270   39.0690   10.7740 O.2    62  MET62      -0.2867
     54  CB        11.7220   37.7250    8.7590 C.3    62  MET62       0.0387
     55  CG        12.5670   36.5330    8.3920 C.3    62  MET62       0.0595
     56  SD        14.1950   36.9580    7.6730 S.3    62  MET62      -0.1393
     57  CE        15.0700   37.8500    8.9540 C.3    62  MET62       0.0692
     58  N         17.0320   37.0180   14.5930 N.3    71  VAL71      -0.1245
     59  CA        17.6500   37.9980   13.6790 C.3    71  VAL71       0.1561
     60  C         16.5070   38.7920   12.9820 C.2    71  VAL71       0.2260
     61  O         15.5500   38.2310   12.4400 O.2    71  VAL71      -0.2867
     62  CB        18.6980   37.3270   12.6070 C.3    71  VAL71       0.0252
     63  CG1       19.2020   38.3310   11.5310 C.3    71  VAL71       0.0019
     64  CG2       19.8820   36.6950   13.2820 C.3    71  VAL71       0.0019
     65  N         17.6600   41.5000    0.7380 N.3    84  ILE84      -0.1245
     66  CA        17.0960   41.4030    2.0820 C.3    84  ILE84       0.1561
     67  C         18.1060   41.9320    3.0470 C.2    84  ILE84       0.2260
     68  O         19.2580   41.4860    3.0310 O.2    84  ILE84      -0.2867
     69  CB        16.7740   39.9820    2.5120 C.3    84  ILE84       0.0252
     70  CG1       15.9050   39.2940    1.4660 C.3    84  ILE84       0.0019
     71  CG2       16.0030   40.0140    3.8720 C.3    84  ILE84       0.0019
     72  CD1       15.7350   37.8230    1.6910 C.3    84  ILE84       0.0001
     73  N         19.2390   42.7230    6.9690 N.3    86  THR86      -0.1203
     74  CA        18.9060   42.5250    8.3840 C.3    86  THR86       0.1994
     75  C         19.8150   43.2310    9.3780 C.2    86  THR86       0.2618
     76  O         20.8940   43.7070    9.0080 O.2    86  THR86      -0.2717
     77  CB        18.8150   41.0230    8.8210 C.3    86  THR86       0.1784
     78  OG1       20.1370   40.4700    8.9170 O.3    86  THR86      -0.2211
     79  CG2       17.9820   40.2080    7.8550 C.3    86  THR86       0.0376
     80  N         19.4670   43.0670   10.6660 N.am   87  GLU87      -0.1965
     81  CA        20.4020   43.3020   11.7820 C.3    87  GLU87       0.1733
     82  C         21.6800   42.5070   11.5990 C.2    87  GLU87       0.2616
     83  O         21.6590   41.4760   10.9430 O.2    87  GLU87      -0.2715
     84  CB        19.7350   43.0390   13.1730 C.3    87  GLU87       0.0429
     85  CG        19.9880   41.6830   13.8410 C.3    87  GLU87       0.1163
     86  CD        19.5110   41.6420   15.3370 C.2    87  GLU87       0.3649
     87  OE1       18.3820   41.1970   15.5850 O.co2  87  GLU87      -0.2457
     88  OE2       20.2760   41.9920   16.2640 O.co2  87  GLU87      -0.2457
     89  N         22.8110   43.1310   11.9340 N.am   88  TYR88      -0.1960
     90  CA        24.1180   42.4960   11.7110 C.3    88  TYR88       0.1771
     91  C         24.5690   41.6460   12.9140 C.2    88  TYR88       0.2619
     92  O         24.5730   42.1290   14.0760 O.2    88  TYR88      -0.2715
     93  CB        25.1900   43.5410   11.3920 C.3    88  TYR88       0.0574
     94  CG        26.4580   42.9210   10.9200 C.ar   88  TYR88      -0.0198
     95  CD1       26.4840   42.2290    9.7380 C.ar   88  TYR88      -0.0009
     96  CD2       27.6140   42.9490   11.6880 C.ar   88  TYR88      -0.0009
     97  CE1       27.5960   41.5720    9.3340 C.ar   88  TYR88       0.0417
     98  CE2       28.7840   42.3340   11.2600 C.ar   88  TYR88       0.0417
     99  CZ        28.7520   41.6080   10.1040 C.ar   88  TYR88       0.1957
    100  OH        29.8700   40.9980    9.5800 O.3    88  TYR88      -0.2866
    101  N         25.0050   40.4130   12.6590 N.am   89  MET89      -0.1977
    102  CA        25.6550   39.6570   13.7190 C.3    89  MET89       0.1605
    103  C         27.1920   39.5970   13.5790 C.2    89  MET89       0.2287
    104  O         27.7320   39.0060   12.6760 O.2    89  MET89      -0.2864
    105  CB        25.0420   38.2990   13.8300 C.3    89  MET89       0.0413
    106  CG        23.5760   38.3400   13.6140 C.3    89  MET89       0.0598
    107  SD        22.7570   39.0250   15.0000 S.3    89  MET89      -0.1393
    108  CE        23.3850   38.0080   16.3180 C.3    89  MET89       0.0692
    109  N         29.2780   35.9710   13.3890 N.3    92  GLY92      -0.1210
    110  CA        29.0980   34.9860   12.3380 C.3    92  GLY92       0.1956
    111  C         28.3040   33.8260   12.8790 C.2    92  GLY92       0.2612
    112  O         27.4930   34.0180   13.7940 O.2    92  GLY92      -0.2717
    113  N         28.4340   32.6500   12.2640 N.am   93  SER93      -0.1952
    114  CA        27.6230   31.4920   12.6760 C.3    93  SER93       0.1924
    115  C         28.1610   30.7940   13.9040 C.2    93  SER93       0.2314
    116  O         29.3780   30.6900   14.0760 O.2    93  SER93      -0.2863
    117  CB        27.4820   30.4820   11.5440 C.3    93  SER93       0.2116
    118  OG        28.7420   29.9630   11.2060 O.3    93  SER93      -0.2180
    119  N         30.8340   28.0590   13.1960 N.3    96  ASP96      -0.1239
    120  CA        32.1980   28.6090   12.9700 C.3    96  ASP96       0.1674
    121  C         32.7790   29.3020   14.2210 C.2    96  ASP96       0.2266
    122  O         34.0130   29.2770   14.4400 O.2    96  ASP96      -0.2867
    123  CB        32.2310   29.6350   11.8390 C.3    96  ASP96       0.1410
    124  CG        31.8870   29.0560   10.4930 C.2    96  ASP96       0.3668
    125  OD1       32.2870   27.9010   10.2150 O.co2  96  ASP96      -0.2456
    126  OD2       31.1990   29.7760    9.7130 O.co2  96  ASP96      -0.2456
    127  N         23.2240   32.4750   14.8310 N.3   141  LEU141     -0.1245
    128  CA        24.1370   33.5770   14.5470 C.3   141  LEU141      0.1561
    129  C         24.5930   34.2400   15.9030 C.2   141  LEU141      0.2260
    130  O         23.8160   34.2760   16.8640 O.2   141  LEU141     -0.2867
    131  CB        23.4590   34.5730   13.5680 C.3   141  LEU141      0.0270
    132  CG        24.0320   34.5860   12.1590 C.3   141  LEU141      0.0019
    133  CD1       24.4490   33.2490   11.7130 C.3   141  LEU141      0.0001
    134  CD2       23.1450   35.2290   11.1260 C.3   141  LEU141      0.0001
    135  N         18.5790   32.0990   12.9770 N.3   151  ALA151     -0.1231
    136  CA        18.8260   32.7240   11.6890 C.3   151  ALA151      0.1694
    137  C         18.0950   31.9520   10.5920 C.2   151  ALA151      0.2592
    138  O         17.1940   31.1660   10.8840 O.2   151  ALA151     -0.2718
    139  CB        20.3040   32.7600   11.4310 C.3   151  ALA151      0.0304
    140  N         18.4960   32.1710    9.3370 N.am  152  ASP152     -0.1960
    141  CA        18.0120   31.3840    8.1710 C.3   152  ASP152      0.1840
    142  C         16.6240   30.7910    8.2900 C.2   152  ASP152      0.2622
    143  O         16.4590   29.6680    8.7340 O.2   152  ASP152     -0.2715
    144  CB        19.0060   30.2860    7.7680 C.3   152  ASP152      0.1450
    145  CG        18.6810   29.6790    6.3880 C.2   152  ASP152      0.3671
    146  OD1       19.6230   29.5870    5.5780 O.co2 152  ASP152     -0.2456
    147  OD2       17.4780   29.4100    6.0690 O.co2 152  ASP152     -0.2456
    148  N         15.7050   31.3890    7.5770 N.am  153  PHE153     -0.1974
    149  CA        14.3230   31.0300    7.7010 C.3   153  PHE153      0.1639
    150  C         13.8190   30.5720    6.3290 C.2   153  PHE153      0.2290
    151  O         12.6370   30.6170    6.0490 O.2   153  PHE153     -0.2864
    152  CB        13.5300   32.2400    8.2010 C.3   153  PHE153      0.0560
    153  CG        13.9940   32.7690    9.5530 C.ar  153  PHE153     -0.0200
    154  CD1       14.8300   33.8800    9.6250 C.ar  153  PHE153     -0.0042
    155  CD2       13.4020   32.3040   10.7440 C.ar  153  PHE153     -0.0042
    156  CE1       15.2140   34.4330   10.9050 C.ar  153  PHE153     -0.0003
    157  CE2       13.8200   32.8000   12.0000 C.ar  153  PHE153     -0.0003
    158  CZ        14.7180   33.8820   12.0730 C.ar  153  PHE153     -0.0000
@<TRIPOS>BOND
     1    12    11    2
     2    35    34    2
     3    34    33    1
     4    11    10    1
     5    13    14    1
     6    65    66    1
     7    30    29    1
     8    37    36    1
     9    37    38    1
    10    33    36    1
    11    33    32    1
    12    10     9    2
    13    70    72    1
    14    70    69    1
    15    28    27    2
    16    14    15    1
    17    14    17    1
    18    39    38    1
    19    39    40    1
    20    16    15    2
    21    32    27   am
    22     9     3    1
    23    29    31    1
    24    29    26    1
    25    66    69    1
    26    66    67    1
    27    27    26    1
    28    41    42    1
    29    69    71    1
    30    19    17    1
    31     1     2    1
    32    17    18    1
    33    26    25    1
    34    68    67    2
    35     3     4    2
    36     3     2    1
    37    45    42    1
    38    45    46    1
    39    48    47   ar
    40    42    43    1
    41     2     5    1
    42    25    22   am
    43    46    47    1
    44    43    44    2
    45    47    49   ar
    46     5     6    1
    47    22    23    2
    48    22    21    1
    49     6     8    1
    50     6     7    1
    51   146   145   ar
    52   151   150    2
    53   147   145   ar
    54   150   149    1
    55   145   144    1
    56    21    24    1
    57    21    20    1
    58    73    74    1
    59   148   149    1
    60   148   142   am
    61    56    55    1
    62    56    57    1
    63   149   152    1
    64   144   141    1
    65    79    77    1
    66    50    51    1
    67   141   142    1
    68   141   140    1
    69   152   153    1
    70   142   143    2
    71    74    77    1
    72    74    75    1
    73    55    54    1
    74    54    51    1
    75    77    78    1
    76    76    75    2
    77    51    52    1
    78    97    95   ar
    79    97    99   ar
    80   140   137   am
    81    75    80   am
    82   153   154   ar
    83   153   155   ar
    84   100    99    1
    85    52    53    2
    86   154   156   ar
    87   126   124   ar
    88    95    94   ar
    89    99    98   ar
    90   125   124   ar
    91   124   123    1
    92   137   138    2
    93   137   136    1
    94    80    81    1
    95   155   157   ar
    96   156   158   ar
    97    94    93    1
    98    94    96   ar
    99    83    82    2
   100   134   132    1
   101   118   117    1
   102    98    96   ar
   103    93    90    1
   104   139   136    1
   105    63    62    1
   106   117   114    1
   107    82    81    1
   108    82    89   am
   109   136   135    1
   110    90    89    1
   111    90    91    1
   112   133   132    1
   113    81    84    1
   114   123   120    1
   115   157   158   ar
   116   132   131    1
   117   113   114    1
   118   113   111   am
   119   110   111    1
   120   110   109    1
   121    61    60    2
   122    62    64    1
   123    62    59    1
   124   101    91   am
   125   101   102    1
   126   114   115    1
   127   104   103    2
   128   111   112    2
   129    91    92    2
   130   120   119    1
   131   120   121    1
   132    60    59    1
   133    84    85    1
   134   131   128    1
   135   103   102    1
   136   106   105    1
   137   106   107    1
   138    59    58    1
   139   102   105    1
   140    85    86    1
   141   115   116    2
   142   121   122    2
   143   128   127    1
   144   128   129    1
   145   107   108    1
   146    86    87   ar
   147    86    88   ar
   148   129   130    2
