@<TRIPOS>MOLECULE
tmp/2zydB00.pdb
 114 104 0 0 0
SMALL
GASTEIGER

@<TRIPOS>ATOM
      1  N        -11.4940   30.0180   42.7010 N.3    13  MET13      -0.1245
      2  CA       -10.7490   30.9390   43.5510 C.3    13  MET13       0.1570
      3  C        -11.5970   32.1500   43.9750 C.2    13  MET13       0.2261
      4  O        -11.5690   32.5380   45.1470 O.2    13  MET13      -0.2867
      5  CB        -9.4890   31.4260   42.8510 C.3    13  MET13       0.0387
      6  CG        -8.5560   30.2920   42.4880 C.3    13  MET13       0.0595
      7  SD        -8.1590   29.2560   43.9580 S.3    13  MET13      -0.1393
      8  CE        -7.6580   27.5580   43.0440 C.3    13  MET13       0.0692
      9  N         -4.5680   36.5280   38.1660 N.3   101  ASN101     -0.1240
     10  CA        -3.1550   36.2840   37.8460 C.3   101  ASN101      0.1653
     11  C         -2.7890   37.0710   36.6000 C.2   101  ASN101      0.2266
     12  O         -2.5130   36.5320   35.5100 O.2   101  ASN101     -0.2867
     13  CB        -2.9470   34.8250   37.5820 C.3   101  ASN101      0.1155
     14  CG        -3.0030   34.0310   38.8460 C.2   101  ASN101      0.2627
     15  OD1       -2.5400   34.5000   39.9200 O.2   101  ASN101     -0.2716
     16  ND2       -3.5300   32.8380   38.7570 N.am  101  ASN101     -0.0877
     17  N         -4.2450   28.3020   46.3450 N.3   129  GLY129     -0.1225
     18  CA        -5.0940   27.2230   45.8290 C.3   129  GLY129      0.1811
     19  C         -6.5090   27.3540   46.3610 C.2   129  GLY129      0.2280
     20  O         -6.8440   28.3650   46.9500 O.2   129  GLY129     -0.2866
     21  N          3.6350   37.9150   42.3880 N.3   182  LYS182     -0.1245
     22  CA         2.8340   36.7270   42.2250 C.3   182  LYS182      0.1561
     23  C          3.3600   35.8980   41.0650 C.2   182  LYS182      0.2260
     24  O          3.3980   34.6600   41.1570 O.2   182  LYS182     -0.2867
     25  CB         1.3610   37.1080   41.9600 C.3   182  LYS182      0.0271
     26  CG         0.4720   35.8880   41.5790 C.3   182  LYS182      0.0035
     27  CD         0.3060   35.0110   42.8150 C.3   182  LYS182      0.0206
     28  CE        -0.1240   33.5820   42.5470 C.3   182  LYS182      0.1093
     29  NZ        -1.3860   33.4570   41.8920 N.3   182  LYS182     -0.1314
     30  N          4.7370   31.9990   41.2300 N.3   186  ASN186     -0.1240
     31  CA         4.3370   30.9030   40.3720 C.3   186  ASN186      0.1653
     32  C          5.5360   30.2870   39.6510 C.2   186  ASN186      0.2266
     33  O          5.5750   29.0610   39.5200 O.2   186  ASN186     -0.2867
     34  CB         3.3030   31.3650   39.3830 C.3   186  ASN186      0.1155
     35  CG         1.9280   31.4730   40.0750 C.2   186  ASN186      0.2627
     36  OD1        1.7510   31.2640   41.3400 O.2   186  ASN186     -0.2716
     37  ND2        0.9250   31.7280   39.2580 N.am  186  ASN186     -0.0877
     38  N          7.0520   28.0880   42.1570 N.3   189  GLU189     -0.1231
     39  CA         6.2150   26.9020   42.3300 C.3   189  GLU189      0.1699
     40  C          6.4930   25.9030   41.2060 C.2   189  GLU189      0.2592
     41  O          6.5840   24.6560   41.4680 O.2   189  GLU189     -0.2718
     42  CB         4.7690   27.4100   42.2710 C.3   189  GLU189      0.0402
     43  CG         3.7410   26.2830   42.2410 C.3   189  GLU189      0.1161
     44  CD         2.3750   26.8320   41.9840 C.2   189  GLU189      0.3649
     45  OE1        1.9200   27.6900   42.7700 O.co2 189  GLU189     -0.2457
     46  OE2        1.7490   26.4300   40.9940 O.co2 189  GLU189     -0.2457
     47  N          6.6440   26.3870   39.9590 N.am  190  TYR190     -0.1976
     48  CA         6.9240   25.4610   38.8630 C.3   190  TYR190      0.1639
     49  C          8.2510   24.7390   39.1550 C.2   190  TYR190      0.2290
     50  O          8.3770   23.5160   38.9190 O.2   190  TYR190     -0.2864
     51  CB         7.1010   26.2130   37.5270 C.3   190  TYR190      0.0560
     52  CG         5.8800   26.4280   36.7310 C.ar  190  TYR190     -0.0198
     53  CD1        4.7020   26.8770   37.3410 C.ar  190  TYR190     -0.0009
     54  CD2        5.9260   26.2400   35.3620 C.ar  190  TYR190     -0.0009
     55  CE1        3.5680   27.1500   36.5460 C.ar  190  TYR190      0.0417
     56  CE2        4.7770   26.5210   34.5600 C.ar  190  TYR190      0.0417
     57  CZ         3.6570   26.9660   35.2000 C.ar  190  TYR190      0.1957
     58  OH         2.5530   27.3030   34.4220 O.3   190  TYR190     -0.2866
     59  N          7.9440   22.0520   41.9470 N.3   193  MET193     -0.1245
     60  CA         7.2270   20.8380   41.4970 C.3   193  MET193      0.1570
     61  C          8.1420   20.0520   40.5570 C.2   193  MET193      0.2261
     62  O          8.1360   18.8050   40.6000 O.2   193  MET193     -0.2867
     63  CB         5.9360   21.2570   40.7380 C.3   193  MET193      0.0387
     64  CG         4.9750   21.8120   41.7760 C.3   193  MET193      0.0595
     65  SD         3.6110   22.7420   40.9740 S.3   193  MET193     -0.1393
     66  CE         2.6890   21.3610   40.3680 C.3   193  MET193      0.0692
     67  N          0.0070   20.5890   32.2300 N.3   257  ALA257     -0.1231
     68  CA        -0.5950   21.7820   31.6590 C.3   257  ALA257      0.1694
     69  C         -0.0520   23.0480   32.3630 C.2   257  ALA257      0.2592
     70  O          0.7420   22.9880   33.3220 O.2   257  ALA257     -0.2718
     71  CB        -2.1740   21.7010   31.7930 C.3   257  ALA257      0.0304
     72  N         -0.4560   24.2060   31.8860 N.am  258  ASN258     -0.1960
     73  CA         0.0020   25.4450   32.5350 C.3   258  ASN258      0.1819
     74  C         -0.8590   26.6050   32.0990 C.2   258  ASN258      0.2621
     75  O         -1.5350   26.5380   31.0460 O.2   258  ASN258     -0.2715
     76  CB         1.4600   25.7510   32.1390 C.3   258  ASN258      0.1195
     77  CG         1.5750   26.2420   30.6940 C.2   258  ASN258      0.2630
     78  OD1        1.8970   25.4550   29.7960 O.2   258  ASN258     -0.2716
     79  ND2        1.2970   27.5370   30.4640 N.am  258  ASN258     -0.0877
     80  N         -0.8550   27.6670   32.8950 N.am  259  LYS259     -0.1977
     81  CA        -1.6160   28.8610   32.5410 C.3   259  LYS259      0.1596
     82  C         -0.7210   30.1050   32.3900 C.2   259  LYS259      0.2287
     83  O         -1.0980   31.2080   32.7670 O.2   259  LYS259     -0.2864
     84  CB        -2.7260   29.1240   33.5760 C.3   259  LYS259      0.0298
     85  CG        -3.7080   27.9280   33.6560 C.3   259  LYS259      0.0038
     86  CD        -5.2020   28.3080   33.5750 C.3   259  LYS259      0.0206
     87  CE        -6.0800   27.0350   33.7340 C.3   259  LYS259      0.1093
     88  NZ        -7.5460   27.3430   33.8790 N.3   259  LYS259     -0.1314
     89  N          2.1010   31.8140   33.8910 N.3   261  THR261     -0.1274
     90  CA         3.0080   32.6170   34.7610 C.3   261  THR261      0.1548
     91  C          4.4210   32.0260   34.8370 C.3   261  THR261      0.2036
     92  O          5.4320   32.6450   35.3380 O.3   261  THR261     -0.2187
     93  CB         2.3630   32.7430   36.1170 C.3   261  THR261      0.1721
     94  OG1        2.0810   31.4110   36.6270 O.3   261  THR261     -0.2215
     95  CG2        0.9980   33.4410   35.9520 C.3   261  THR261      0.0371
     96  N          7.5960   21.0370   31.3890 N.3   286  ARG286     -0.1245
     97  CA         6.1490   20.9110   31.1860 C.3   286  ARG286      0.1563
     98  C          5.9010   20.9020   29.6800 C.2   286  ARG286      0.2260
     99  O          5.0970   20.0650   29.1620 O.2   286  ARG286     -0.2867
    100  CB         5.4160   22.1250   31.7890 C.3   286  ARG286      0.0307
    101  CG         5.4610   22.1010   33.3010 C.3   286  ARG286      0.0489
    102  CD         4.2710   22.8730   33.8760 C.3   286  ARG286      0.2205
    103  NE         4.3540   22.8850   35.3430 N.pl3 286  ARG286     -0.0865
    104  CZ         3.3930   23.3780   36.1490 C.cat 286  ARG286      0.5346
    105  NH1        2.2570   23.9020   35.6350 N.pl3 286  ARG286      0.1354
    106  NH2        3.5740   23.3100   37.4630 N.pl3 286  ARG286      0.1354
    107  N          1.2820   28.4440   47.8560 N.3   364  ILE364     -0.1245
    108  CA         1.5770   27.0570   47.5150 C.3   364  ILE364      0.1561
    109  C          3.0030   26.6680   47.9020 C.2   364  ILE364      0.2260
    110  O          3.2570   25.5050   48.2430 O.2   364  ILE364     -0.2867
    111  CB         1.3740   26.8550   45.9720 C.3   364  ILE364      0.0252
    112  CG1       -0.0650   27.1470   45.5700 C.3   364  ILE364      0.0019
    113  CG2        1.7300   25.3880   45.5970 C.3   364  ILE364      0.0019
    114  CD1       -1.1010   26.3840   46.3990 C.3   364  ILE364      0.0001
@<TRIPOS>BOND
     1    99    98    2
     2    98    97    1
     3    78    77    2
     4    79    77   am
     5    77    76    1
     6    75    74    2
     7    97    96    1
     8    97   100    1
     9    68    71    1
    10    68    67    1
    11    68    69    1
    12   100   101    1
    13    72    69   am
    14    72    73    1
    15    74    73    1
    16    74    80   am
    17    76    73    1
    18    69    70    2
    19    82    81    1
    20    82    83    2
    21    81    80    1
    22    81    84    1
    23   101   102    1
    24    86    85    1
    25    86    87    1
    26    84    85    1
    27    87    88    1
    28   102   103    1
    29    89    90    1
    30    58    57    1
    31    56    57   ar
    32    56    54   ar
    33    90    91    1
    34    90    93    1
    35    91    92    1
    36    57    55   ar
    37   103   104    2
    38    54    52   ar
    39    12    11    2
    40   105   104    1
    41    95    93    1
    42    93    94    1
    43   104   106    1
    44    55    53   ar
    45    11    10    1
    46    52    53   ar
    47    52    51    1
    48    51    48    1
    49    13    10    1
    50    13    14    1
    51    10     9    1
    52    16    14   am
    53    14    15    2
    54    48    49    1
    55    48    47    1
    56    50    49    2
    57    37    35   am
    58    34    35    1
    59    34    31    1
    60    33    32    2
    61    32    31    1
    62    47    40   am
    63    35    36    2
    64    66    65    1
    65    31    30    1
    66    61    62    2
    67    61    60    1
    68    63    60    1
    69    63    64    1
    70    65    64    1
    71    46    44   ar
    72    23    24    2
    73    23    22    1
    74    40    41    2
    75    40    39    1
    76    60    59    1
    77    26    25    1
    78    26    27    1
    79    29    28    1
    80    25    22    1
    81    44    43    1
    82    44    45   ar
    83    38    39    1
    84    22    21    1
    85    43    42    1
    86    42    39    1
    87     6     5    1
    88     6     7    1
    89    28    27    1
    90     1     2    1
    91     5     2    1
    92     8     7    1
    93     2     3    1
    94     3     4    2
    95   112   111    1
    96   112   114    1
    97   113   111    1
    98    18    17    1
    99    18    19    1
   100   111   108    1
   101    19    20    2
   102   108   107    1
   103   108   109    1
   104   109   110    2
