@<TRIPOS>MOLECULE
tmp/2zyeA00.pdb
 112 105 0 0 0
SMALL
GASTEIGER

@<TRIPOS>ATOM
      1  N          2.8510   24.1380   17.3020 N.3     8  ARG8       -0.1245
      2  CA         4.1030   24.7800   16.7940 C.3     8  ARG8        0.1563
      3  C          3.8010   26.2100   16.3380 C.2     8  ARG8        0.2260
      4  O          2.8190   26.4290   15.6020 O.2     8  ARG8       -0.2867
      5  CB         4.7700   23.9920   15.7390 C.3     8  ARG8        0.0307
      6  CG         5.1400   22.6480   16.1680 C.3     8  ARG8        0.0489
      7  CD         5.7980   21.8850   15.0580 C.3     8  ARG8        0.2205
      8  NE         6.2360   20.5650   15.5380 N.pl3   8  ARG8       -0.0865
      9  CZ         6.1810   19.4380   14.7900 C.cat   8  ARG8        0.5346
     10  NH1        5.6740   19.4560   13.4970 N.pl3   8  ARG8        0.1354
     11  NH2        6.6440   18.2720   15.2720 N.pl3   8  ARG8        0.1354
     12  N          9.1760   28.5920   11.5710 N.3    23  LEU23      -0.1245
     13  CA         8.9680   28.4450   13.0000 C.3    23  LEU23       0.1561
     14  C          9.5590   29.5640   13.7960 C.2    23  LEU23       0.2260
     15  O         10.6990   29.9330   13.5720 O.2    23  LEU23      -0.2867
     16  CB         9.6030   27.0970   13.3360 C.3    23  LEU23       0.0270
     17  CG         9.4870   26.6090   14.7550 C.3    23  LEU23       0.0019
     18  CD1        8.1560   26.1760   15.0480 C.3    23  LEU23       0.0001
     19  CD2       10.5140   25.3990   14.8650 C.3    23  LEU23       0.0001
     20  N         11.3930   30.7270   16.7710 N.3    25  ASP25      -0.1239
     21  CA        12.1430   29.7770   17.6180 C.3    25  ASP25       0.1674
     22  C         13.0940   30.5930   18.5570 C.2    25  ASP25       0.2266
     23  O         14.1420   31.0360   18.1850 O.2    25  ASP25      -0.2867
     24  CB        12.9590   28.8590   16.6960 C.3    25  ASP25       0.1410
     25  CG        13.7360   27.8830   17.4100 C.2    25  ASP25       0.3668
     26  OD1       13.7780   27.9090   18.6720 O.co2  25  ASP25      -0.2456
     27  OD2       14.4010   27.0890   16.7280 O.co2  25  ASP25      -0.2456
     28  N         14.7500   29.3670   20.9070 N.3    27  GLY27      -0.1210
     29  CA        15.9720   28.5770   21.1860 C.3    27  GLY27       0.1956
     30  C         17.0560   28.7070   20.1630 C.2    27  GLY27       0.2612
     31  O         18.1260   28.1360   20.3570 O.2    27  GLY27      -0.2717
     32  N         16.7840   29.3370   19.0280 N.am   28  ALA28      -0.1965
     33  CA        17.7600   29.4750   17.9650 C.3    28  ALA28       0.1728
     34  C         18.4720   30.8200   17.9830 C.2    28  ALA28       0.2616
     35  O         17.8220   31.8200   17.9350 O.2    28  ALA28      -0.2715
     36  CB        17.0660   29.2670   16.6290 C.3    28  ALA28       0.0334
     37  N         19.8000   30.7870   17.9620 N.am   29  ASP29      -0.1957
     38  CA        20.5590   32.0430   17.9430 C.3    29  ASP29       0.1840
     39  C         20.3870   32.7110   16.5520 C.2    29  ASP29       0.2622
     40  O         20.3910   33.9420   16.4190 O.2    29  ASP29      -0.2715
     41  CB        22.0730   31.7320   18.1580 C.3    29  ASP29       0.1450
     42  CG        22.4110   31.2940   19.5820 C.2    29  ASP29       0.3671
     43  OD1       21.6160   31.4700   20.5190 O.co2  29  ASP29      -0.2456
     44  OD2       23.5270   30.7640   19.6600 O.co2  29  ASP29      -0.2456
     45  N         20.3070   31.8750   15.5570 N.am   30  ASP30      -0.1971
     46  CA        20.4470   32.2410   14.1050 C.3    30  ASP30       0.1709
     47  C         19.1450   31.8520   13.3950 C.2    30  ASP30       0.2293
     48  O         18.3460   31.0290   13.8460 O.2    30  ASP30      -0.2864
     49  CB        21.6030   31.4340   13.4450 C.3    30  ASP30       0.1436
     50  CG        22.9440   31.6800   14.1250 C.2    30  ASP30       0.3671
     51  OD1       23.6780   30.7190   14.4420 O.co2  30  ASP30      -0.2456
     52  OD2       23.2010   32.8600   14.3630 O.co2  30  ASP30      -0.2456
     53  N         17.6850   30.1180    9.9700 N.3    32  VAL32      -0.1245
     54  CA        18.1330   29.0780    9.0530 C.3    32  VAL32       0.1561
     55  C         16.9560   28.7060    8.1100 C.2    32  VAL32       0.2260
     56  O         15.9000   28.3320    8.5220 O.2    32  VAL32      -0.2867
     57  CB        18.5470   27.7840    9.8100 C.3    32  VAL32       0.0252
     58  CG1       19.3140   26.9050    8.8400 C.3    32  VAL32       0.0019
     59  CG2       19.4470   28.1550   10.9710 C.3    32  VAL32       0.0019
     60  N         26.8120   25.0680   11.8580 N.3    47  ILE47      -0.1231
     61  CA        25.8760   25.3270   12.9790 C.3    47  ILE47       0.1692
     62  C         25.4370   23.9500   13.5600 C.2    47  ILE47       0.2593
     63  O         25.2990   22.9720   12.8560 O.2    47  ILE47      -0.2718
     64  CB        24.6140   26.1610   12.6140 C.3    47  ILE47       0.0266
     65  CG1       23.7960   25.4300   11.5260 C.3    47  ILE47       0.0019
     66  CG2       25.0480   27.5340   12.2080 C.3    47  ILE47       0.0020
     67  CD1       22.5440   26.2770   11.1630 C.3    47  ILE47       0.0001
     68  N         25.3020   23.9340   14.8860 N.am   48  GLY48      -0.1942
     69  CA        25.0260   22.6950   15.5470 C.3    48  GLY48       0.2014
     70  C         23.8270   22.7620   16.4640 C.2    48  GLY48       0.2639
     71  O         23.4860   23.7660   17.0170 O.2    48  GLY48      -0.2714
     72  N         23.1830   21.6240   16.5610 N.am   49  GLY49      -0.1939
     73  CA        22.0380   21.5180   17.5030 C.3    49  GLY49       0.2014
     74  C         21.8460   20.0550   17.8250 C.2    49  GLY49       0.2638
     75  O         22.8120   19.2720   17.8510 O.2    49  GLY49      -0.2714
     76  N         20.5730   19.6040   17.9820 N.am   50  ILE50      -0.1973
     77  CA        20.2860   18.2340   18.3610 C.3    50  ILE50       0.1635
     78  C         20.6750   17.3870   17.1140 C.2    50  ILE50       0.2290
     79  O         20.2650   17.6450   15.9990 O.2    50  ILE50      -0.2864
     80  CB        18.8060   18.0850   18.6630 C.3    50  ILE50       0.0496
     81  CG1       18.4440   18.6460   20.0420 C.2    50  ILE50      -0.0243
     82  CG2       18.3560   16.6650   18.7570 C.3    50  ILE50       0.0069
     83  CD1       18.9050   17.9900   21.1150 C.2    50  ILE50      -0.0049
     84  N         18.1920   22.3840    6.1290 N.3    80  THR80      -0.1204
     85  CA        17.3350   22.2510    7.3210 C.3    80  THR80       0.1979
     86  C         15.9970   21.6500    6.9490 C.2    80  THR80       0.2460
     87  O         15.4590   21.9980    5.9130 O.2    80  THR80      -0.2732
     88  CB        17.1580   23.6640    8.0120 C.3    80  THR80       0.1783
     89  OG1       16.3480   23.5120    9.1860 O.3    80  THR80      -0.2211
     90  CG2       16.6110   24.7440    7.1020 C.3    80  THR80       0.0376
     91  N         15.3640   20.8550    7.8380 N.am   81  PRO81      -0.2717
     92  CA        14.0560   20.2710    7.4870 C.3    81  PRO81       0.1535
     93  C         12.9050   21.1990    7.7370 C.2    81  PRO81       0.2598
     94  O         11.7900   21.0380    7.2710 O.2    81  PRO81      -0.2715
     95  CB        13.9920   19.0400    8.3900 C.3    81  PRO81       0.0310
     96  CG        14.8260   19.3120    9.5050 C.3    81  PRO81       0.0237
     97  CD        15.9260   20.2690    9.0560 C.3    81  PRO81       0.0939
     98  N         13.1900   22.2650    8.4900 N.am   82  VAL82      -0.1978
     99  CA        12.1570   23.2290    8.8450 C.3    82  VAL82       0.1596
    100  C         12.8090   24.6450    8.7580 C.2    82  VAL82       0.2287
    101  O         13.9800   24.8140    9.1900 O.2    82  VAL82      -0.2864
    102  CB        11.6460   22.9300   10.3400 C.3    82  VAL82       0.0276
    103  CG1       10.6880   23.9630   10.8160 C.3    82  VAL82       0.0022
    104  CG2       10.9530   21.5930   10.3920 C.3    82  VAL82       0.0022
    105  N         13.5890   28.2390   10.1110 N.3    84  ILE84      -0.1245
    106  CA        13.6550   28.6340   11.5220 C.3    84  ILE84       0.1561
    107  C         13.9520   30.1190   11.5700 C.2    84  ILE84       0.2260
    108  O         14.9520   30.6080   11.0360 O.2    84  ILE84      -0.2867
    109  CB        14.8280   27.8470   12.2290 C.3    84  ILE84       0.0252
    110  CG1       14.3840   26.3970   12.4310 C.3    84  ILE84       0.0019
    111  CG2       15.2050   28.5850   13.5110 C.3    84  ILE84       0.0019
    112  CD1       15.5050   25.4360   12.6060 C.3    84  ILE84       0.0001
@<TRIPOS>BOND
     1    87    86    2
     2    84    85    1
     3    86    85    1
     4    86    91   am
     5    90    88    1
     6    94    93    2
     7    85    88    1
     8    92    93    1
     9    92    91    1
    10    92    95    1
    11    93    98   am
    12    91    97    1
    13    88    89    1
    14    55    56    2
    15    55    54    1
    16    95    96    1
    17    98    99    1
    18   100    99    1
    19   100   101    2
    20    58    57    1
    21    99   102    1
    22    54    57    1
    23    54    53    1
    24    97    96    1
    25    57    59    1
    26   105   106    1
    27   102   104    1
    28   102   103    1
    29   108   107    2
    30    67    65    1
    31   106   107    1
    32   106   109    1
    33    65    64    1
    34    12    13    1
    35    60    61    1
    36    66    64    1
    37   109   110    1
    38   109   111    1
    39   110   112    1
    40    64    61    1
    41    63    62    2
    42    61    62    1
    43    13    16    1
    44    13    14    1
    45    16    17    1
    46    47    48    2
    47    47    46    1
    48    49    46    1
    49    49    50    1
    50    10     9    1
    51    62    68   am
    52    15    14    2
    53    46    45    1
    54    50    52   ar
    55    50    51   ar
    56    17    19    1
    57    17    18    1
    58     9    11    1
    59     9     8    2
    60    68    69    1
    61     7     8    1
    62     7     6    1
    63    69    70    1
    64    45    39   am
    65     4     3    2
    66     5     6    1
    67     5     2    1
    68    79    78    2
    69     3     2    1
    70    40    39    2
    71    70    72   am
    72    70    71    2
    73    39    38    1
    74    72    73    1
    75    36    33    1
    76    24    25    1
    77    24    21    1
    78    27    25   ar
    79    20    21    1
    80     2     1    1
    81    78    77    1
    82    25    26   ar
    83    73    74    1
    84    21    22    1
    85    74    75    2
    86    74    76   am
    87    35    34    2
    88    38    37    1
    89    38    41    1
    90    37    34   am
    91    33    34    1
    92    33    32    1
    93    76    77    1
    94    41    42    1
    95    23    22    2
    96    77    80    1
    97    80    82    1
    98    80    81    1
    99    32    30   am
   100    42    44   ar
   101    42    43   ar
   102    81    83    2
   103    30    31    2
   104    30    29    1
   105    28    29    1
