@<TRIPOS>MOLECULE
tmp/2zyfA00.pdb
 126 117 0 0 0
SMALL
GASTEIGER

@<TRIPOS>ATOM
      1  N         32.9970  -45.7350  -15.1350 N.3    12  ARG12      -0.1231
      2  CA        33.0160  -44.3230  -15.4930 C.3    12  ARG12       0.1694
      3  C         32.9490  -44.2730  -17.0270 C.2    12  ARG12       0.2591
      4  O         31.8480  -44.1410  -17.5980 O.2    12  ARG12      -0.2718
      5  CB        34.2710  -43.6280  -14.9090 C.3    12  ARG12       0.0321
      6  CG        34.2260  -42.0830  -14.8510 C.3    12  ARG12       0.0489
      7  CD        34.3680  -41.3820  -16.2270 C.3    12  ARG12       0.2205
      8  NE        35.7350  -41.4460  -16.7560 N.pl3  12  ARG12      -0.0865
      9  CZ        36.0930  -41.1680  -18.0180 C.cat  12  ARG12       0.5346
     10  NH1       35.1990  -40.8020  -18.9340 N.pl3  12  ARG12       0.1354
     11  NH2       37.3760  -41.2420  -18.3640 N.pl3  12  ARG12       0.1354
     12  N         34.1130  -44.4130  -17.6870 N.am   13  GLU13      -0.1979
     13  CA        34.1880  -44.4590  -19.1500 C.3    13  GLU13       0.1602
     14  C         33.2260  -45.5400  -19.6770 C.2    13  GLU13       0.2287
     15  O         32.4910  -45.3200  -20.6540 O.2    13  GLU13      -0.2864
     16  CB        35.6320  -44.7900  -19.6100 C.3    13  GLU13       0.0415
     17  CG        35.7460  -45.0020  -21.1470 C.3    13  GLU13       0.1163
     18  CD        35.4980  -43.6880  -21.8920 C.2    13  GLU13       0.3649
     19  OE1       36.1090  -42.7030  -21.4610 O.co2  13  GLU13      -0.2457
     20  OE2       34.7200  -43.6150  -22.8650 O.co2  13  GLU13      -0.2457
     21  N         29.6810  -44.9190  -20.3010 N.3    16  GLN16      -0.1245
     22  CA        29.4100  -44.0850  -21.4660 C.3    16  GLN16       0.1566
     23  C         29.2810  -44.9610  -22.7070 C.2    16  GLN16       0.2260
     24  O         28.9160  -44.4890  -23.7750 O.2    16  GLN16      -0.2867
     25  CB        30.4740  -42.9820  -21.6060 C.3    16  GLN16       0.0367
     26  CG        30.5590  -42.0690  -20.3510 C.3    16  GLN16       0.0905
     27  CD        31.8010  -41.1850  -20.3000 C.2    16  GLN16       0.2608
     28  OE1       32.4290  -41.0300  -19.2340 O.2    16  GLN16      -0.2717
     29  NE2       32.1650  -40.5910  -21.4430 N.am   16  GLN16      -0.0878
     30  N         35.8000  -38.9390  -11.3550 N.3    72  HIS72      -0.1241
     31  CA        36.2050  -38.1140  -12.4550 C.3    72  HIS72       0.1621
     32  C         35.2180  -36.9720  -12.5330 C.2    72  HIS72       0.2264
     33  O         34.0260  -37.2060  -12.7610 O.2    72  HIS72      -0.2867
     34  CB        36.1060  -38.9960  -13.7040 C.3    72  HIS72       0.0745
     35  CG        36.5440  -38.3270  -14.9610 C.ar   72  HIS72       0.0817
     36  ND1       35.6950  -37.5510  -15.7230 N.ar   72  HIS72      -0.2268
     37  CD2       37.7360  -38.3360  -15.6050 C.ar   72  HIS72       0.1154
     38  CE1       36.3470  -37.1090  -16.7830 C.ar   72  HIS72       0.1986
     39  NE2       37.5870  -37.5660  -16.7300 N.ar   72  HIS72      -0.2212
     40  N         39.3280  -33.0740  -14.7830 N.3    94  LEU94      -0.1245
     41  CA        39.4460  -32.8480  -16.2060 C.3    94  LEU94       0.1561
     42  C         39.1430  -31.3900  -16.4930 C.2    94  LEU94       0.2260
     43  O         38.0190  -30.9550  -16.2910 O.2    94  LEU94      -0.2867
     44  CB        38.4900  -33.7420  -16.9910 C.3    94  LEU94       0.0270
     45  CG        38.6510  -33.6930  -18.5200 C.3    94  LEU94       0.0019
     46  CD1       39.9620  -34.3510  -18.9880 C.3    94  LEU94       0.0001
     47  CD2       37.4730  -34.3550  -19.2130 C.3    94  LEU94       0.0001
     48  N         44.3960  -35.8060   -9.2650 N.3   127  ARG127     -0.1245
     49  CA        44.9570  -35.8250  -10.6180 C.3   127  ARG127      0.1563
     50  C         44.3900  -34.6690  -11.4490 C.2   127  ARG127      0.2260
     51  O         43.1840  -34.3680  -11.3660 O.2   127  ARG127     -0.2867
     52  CB        44.7260  -37.1700  -11.3200 C.3   127  ARG127      0.0307
     53  CG        45.1380  -37.2140  -12.8250 C.3   127  ARG127      0.0489
     54  CD        43.9620  -36.8950  -13.7050 C.3   127  ARG127      0.2205
     55  NE        43.3470  -38.0860  -14.2530 N.pl3 127  ARG127     -0.0865
     56  CZ        42.2550  -38.0770  -15.0050 C.cat 127  ARG127      0.5346
     57  NH1       41.6280  -36.9470  -15.2440 N.pl3 127  ARG127      0.1354
     58  NH2       41.7750  -39.2050  -15.4890 N.pl3 127  ARG127      0.1354
     59  N         44.0660  -33.3500  -15.4790 N.3   129  SER129     -0.1217
     60  CA        44.1690  -33.5620  -16.9250 C.3   129  SER129      0.1889
     61  C         43.5290  -32.4030  -17.6800 C.2   129  SER129      0.2288
     62  O         42.4930  -31.8890  -17.2560 O.2   129  SER129     -0.2866
     63  CB        43.4380  -34.8250  -17.3720 C.3   129  SER129      0.2089
     64  OG        44.1600  -35.9980  -17.0690 O.3   129  SER129     -0.2183
     65  N         41.6390  -31.8430  -21.2870 N.3   131  GLU131     -0.1245
     66  CA        41.0010  -32.6660  -22.3120 C.3   131  GLU131      0.1567
     67  C         41.6820  -32.4970  -23.6740 C.2   131  GLU131      0.2260
     68  O         42.2040  -31.4310  -23.9860 O.2   131  GLU131     -0.2867
     69  CB        39.5150  -32.3260  -22.4610 C.3   131  GLU131      0.0388
     70  CG        38.7500  -33.3920  -23.2460 C.3   131  GLU131      0.1160
     71  CD        37.3250  -32.9710  -23.6170 C.2   131  GLU131      0.3649
     72  OE1       37.0380  -31.7490  -23.7060 O.co2 131  GLU131     -0.2457
     73  OE2       36.4870  -33.8810  -23.8150 O.co2 131  GLU131     -0.2457
     74  N         47.3300  -36.1670  -16.0890 N.3   156  GLY156     -0.1210
     75  CA        47.0160  -37.1220  -17.1130 C.3   156  GLY156      0.1956
     76  C         46.9990  -36.5100  -18.5000 C.2   156  GLY156      0.2612
     77  O         46.8700  -35.2890  -18.6570 O.2   156  GLY156     -0.2717
     78  N         47.0910  -37.3890  -19.4910 N.am  157  LEU157     -0.1965
     79  CA        46.9410  -37.0390  -20.8980 C.3   157  LEU157      0.1728
     80  C         45.7980  -37.8990  -21.4310 C.2   157  LEU157      0.2616
     81  O         45.7130  -39.0880  -21.0880 O.2   157  LEU157     -0.2715
     82  CB        48.2390  -37.3570  -21.6480 C.3   157  LEU157      0.0311
     83  CG        49.5240  -36.5810  -21.2420 C.3   157  LEU157      0.0022
     84  CD1       50.2170  -37.2710  -20.0560 C.3   157  LEU157      0.0001
     85  CD2       50.5010  -36.4910  -22.4030 C.3   157  LEU157      0.0001
     86  N         44.9370  -37.3050  -22.2530 N.am  158  ALA158     -0.1977
     87  CA        43.7540  -37.9860  -22.7950 C.3   158  ALA158      0.1597
     88  C         43.7500  -37.8900  -24.3280 C.2   158  ALA158      0.2287
     89  O         43.6830  -36.7790  -24.8810 O.2   158  ALA158     -0.2864
     90  CB        42.4300  -37.3290  -22.1920 C.3   158  ALA158      0.0319
     91  N         41.3810  -38.1610  -26.4960 N.3   160  THR160     -0.1218
     92  CA        39.9140  -38.1200  -26.3910 C.3   160  THR160      0.1862
     93  C         39.1940  -38.6230  -27.6690 C.2   160  THR160      0.2287
     94  O         38.1680  -39.2940  -27.6060 O.2   160  THR160     -0.2866
     95  CB        39.5170  -36.6430  -26.0860 C.3   160  THR160      0.1770
     96  OG1       40.2020  -36.2160  -24.9000 O.3   160  THR160     -0.2211
     97  CG2       38.0570  -36.4580  -25.8920 C.3   160  THR160      0.0375
     98  N         49.4390  -40.2280  -16.0020 N.3   187  GLU187     -0.1245
     99  CA        48.3700  -41.1290  -16.4140 C.3   187  GLU187      0.1567
    100  C         48.0310  -40.9670  -17.8930 C.2   187  GLU187      0.2260
    101  O         47.9650  -39.8270  -18.3900 O.2   187  GLU187     -0.2867
    102  CB        47.1220  -40.7910  -15.5820 C.3   187  GLU187      0.0388
    103  CG        45.8590  -41.6950  -15.8820 C.3   187  GLU187      0.1160
    104  CD        44.6580  -41.2180  -15.0700 C.2   187  GLU187      0.3649
    105  OE1       44.8900  -40.4840  -14.0750 O.co2 187  GLU187     -0.2457
    106  OE2       43.4980  -41.5640  -15.4260 O.co2 187  GLU187     -0.2457
    107  N         45.1370  -41.9780  -20.9230 N.3   189  HIS189     -0.1241
    108  CA        43.7850  -42.4190  -21.2690 C.3   189  HIS189      0.1621
    109  C         43.6590  -42.3160  -22.7740 C.2   189  HIS189      0.2264
    110  O         43.8370  -41.2410  -23.3560 O.2   189  HIS189     -0.2867
    111  CB        42.7750  -41.4730  -20.6060 C.3   189  HIS189      0.0745
    112  CG        41.3500  -41.7710  -20.9450 C.ar  189  HIS189      0.0817
    113  ND1       40.5490  -42.5720  -20.1520 N.ar  189  HIS189     -0.2268
    114  CD2       40.5710  -41.3650  -21.9810 C.ar  189  HIS189      0.1154
    115  CE1       39.3330  -42.6190  -20.6700 C.ar  189  HIS189      0.1986
    116  NE2       39.3230  -41.9070  -21.7850 N.ar  189  HIS189     -0.2212
    117  N         41.4730  -43.3770  -26.4590 N.3   191  HIS191     -0.1241
    118  CA        40.4370  -44.0210  -27.2270 C.3   191  HIS191      0.1621
    119  C         40.9590  -44.8810  -28.3610 C.2   191  HIS191      0.2264
    120  O         42.0970  -44.6940  -28.8120 O.2   191  HIS191     -0.2867
    121  CB        39.4160  -42.9980  -27.6890 C.3   191  HIS191      0.0745
    122  CG        38.3700  -42.7250  -26.6480 C.ar  191  HIS191      0.0817
    123  ND1       37.1310  -43.3290  -26.6680 N.ar  191  HIS191     -0.2268
    124  CD2       38.4170  -41.9910  -25.5160 C.ar  191  HIS191      0.1154
    125  CE1       36.4470  -42.9470  -25.6050 C.ar  191  HIS191      0.1986
    126  NE2       37.1990  -42.1240  -24.8960 N.ar  191  HIS191     -0.2212
@<TRIPOS>BOND
     1   120   119    2
     2   119   118    1
     3   121   118    1
     4   121   122    1
     5    93    94    2
     6    93    92    1
     7   118   117    1
     8   123   122   ar
     9   123   125   ar
    10   122   124   ar
    11    91    92    1
    12    92    95    1
    13    95    97    1
    14    95    96    1
    15   125   126   ar
    16   124   126   ar
    17    89    88    2
    18    88    87    1
    19    68    67    2
    20    73    71   ar
    21    24    23    2
    22    72    71   ar
    23    67    66    1
    24    71    70    1
    25   110   109    2
    26    70    69    1
    27    20    18   ar
    28    87    86    1
    29    87    90    1
    30   109   108    1
    31    23    22    1
    32    69    66    1
    33    85    83    1
    34    66    65    1
    35    86    80   am
    36   114   116   ar
    37   114   112   ar
    38    18    19   ar
    39    18    17    1
    40   116   115   ar
    41    82    83    1
    42    82    79    1
    43    25    22    1
    44    25    26    1
    45    22    21    1
    46    29    27   am
    47    80    81    2
    48    80    79    1
    49   108   107    1
    50   108   111    1
    51    83    84    1
    52    17    16    1
    53   112   111    1
    54   112   113   ar
    55    79    78    1
    56   115   113   ar
    57    15    14    2
    58    26    27    1
    59    27    28    2
    60    14    13    1
    61    16    13    1
    62    78    76   am
    63    47    45    1
    64    13    12    1
    65    46    45    1
    66    10     9    1
    67    77    76    2
    68    45    44    1
    69    76    75    1
    70   101   100    2
    71    11     9    1
    72     9     8    2
    73   100    99    1
    74    12     3   am
    75    61    62    2
    76    61    60    1
    77     4     3    2
    78    63    64    1
    79    63    60    1
    80    75    74    1
    81     3     2    1
    82    44    41    1
    83    60    59    1
    84    38    39   ar
    85    38    36   ar
    86     8     7    1
    87    39    37   ar
    88    42    43    2
    89    42    41    1
    90    99    98    1
    91    99   102    1
    92     7     6    1
    93    41    40    1
    94   103   102    1
    95   103   104    1
    96    36    35   ar
    97    37    35   ar
    98     2     1    1
    99     2     5    1
   100    58    56    1
   101   106   104   ar
   102    57    56    1
   103   104   105   ar
   104    56    55    2
   105    35    34    1
   106     5     6    1
   107    55    54    1
   108    54    53    1
   109    34    31    1
   110    53    52    1
   111    33    32    2
   112    32    31    1
   113    31    30    1
   114    50    51    2
   115    50    49    1
   116    52    49    1
   117    49    48    1
