@<TRIPOS>MOLECULE
tmp/2zyhB00.pdb
 242 235 0 0 0
SMALL
GASTEIGER

@<TRIPOS>ATOM
      1  N         31.8890   71.5400   63.1760 N.3    11  GLY11      -0.1210
      2  CA        32.8930   72.6140   63.2890 C.3    11  GLY11       0.1956
      3  C         32.3590   74.0340   63.0040 C.2    11  GLY11       0.2612
      4  O         31.1510   74.2440   62.9630 O.2    11  GLY11      -0.2717
      5  N         33.2460   75.0080   62.7570 N.am   12  LEU12      -0.1965
      6  CA        32.8290   76.4150   62.5280 C.3    12  LEU12       0.1728
      7  C         31.9360   76.5270   61.2780 C.2    12  LEU12       0.2616
      8  O         32.2440   75.9330   60.2430 O.2    12  LEU12      -0.2715
      9  CB        34.1050   77.3320   62.3750 C.3    12  LEU12       0.0311
     10  CG        34.0650   78.8770   62.2790 C.3    12  LEU12       0.0022
     11  CD1       33.5300   79.3060   60.9410 C.3    12  LEU12       0.0001
     12  CD2       33.2440   79.4970   63.3430 C.3    12  LEU12       0.0001
     13  N         30.8120   77.2500   61.3860 N.am   13  ALA13      -0.1963
     14  CA        29.8460   77.4010   60.2620 C.3    13  ALA13       0.1728
     15  C         29.1360   76.0960   59.8570 C.2    13  ALA13       0.2616
     16  O         28.5010   76.0240   58.7950 O.2    13  ALA13      -0.2715
     17  CB        30.5720   78.0180   59.0150 C.3    13  ALA13       0.0334
     18  N         29.2240   75.0520   60.6870 N.am   14  GLY14      -0.1955
     19  CA        28.5880   73.7940   60.3400 C.3    14  GLY14       0.1869
     20  C         27.3030   73.5100   61.1300 C.2    14  GLY14       0.2309
     21  O         26.8530   74.3720   61.8860 O.2    14  GLY14      -0.2863
     22  N         26.2650   67.8440   58.3290 N.3    18  GLN18      -0.1245
     23  CA        27.4880   67.1190   57.9270 C.3    18  GLN18       0.1566
     24  C         27.5120   65.6520   58.3960 C.2    18  GLN18       0.2260
     25  O         28.4460   64.8850   58.0290 O.2    18  GLN18      -0.2867
     26  CB        28.7800   67.8690   58.3700 C.3    18  GLN18       0.0367
     27  CG        29.0840   69.1360   57.4690 C.3    18  GLN18       0.0905
     28  CD        28.3020   70.3730   57.9300 C.2    18  GLN18       0.2608
     29  OE1       27.4300   70.9030   57.2140 O.2    18  GLN18      -0.2717
     30  NE2       28.5960   70.8290   59.1470 N.am   18  GLN18      -0.0878
     31  N         34.3700   67.0860   64.1020 N.3   116  HIS116     -0.1241
     32  CA        34.9430   67.5020   62.7870 C.3   116  HIS116      0.1621
     33  C         35.4560   68.9250   62.9490 C.2   116  HIS116      0.2264
     34  O         34.7680   69.8020   63.4760 O.2   116  HIS116     -0.2867
     35  CB        33.8780   67.4670   61.6640 C.3   116  HIS116      0.0745
     36  CG        34.3690   67.9690   60.3310 C.ar  116  HIS116      0.0817
     37  ND1       33.7020   68.9430   59.6090 N.ar  116  HIS116     -0.2268
     38  CD2       35.4370   67.6030   59.5780 C.ar  116  HIS116      0.1154
     39  CE1       34.3400   69.1570   58.4670 C.ar  116  HIS116      0.1986
     40  NE2       35.4020   68.3560   58.4220 N.ar  116  HIS116     -0.2212
     41  N         38.4230   69.0850   52.7940 N.3   191  HIS191     -0.1226
     42  CA        37.9550   69.2020   54.2020 C.3   191  HIS191      0.1752
     43  C         36.5450   68.6690   54.5950 C.2   191  HIS191      0.2595
     44  O         36.4540   67.7960   55.4990 O.2   191  HIS191     -0.2718
     45  CB        38.1560   70.6800   54.6140 C.3   191  HIS191      0.0759
     46  CG        37.9250   70.9720   56.0700 C.ar  191  HIS191      0.0818
     47  ND1       38.6610   70.3920   57.0930 N.ar  191  HIS191     -0.2268
     48  CD2       37.0800   71.8500   56.6660 C.ar  191  HIS191      0.1154
     49  CE1       38.2860   70.9130   58.2530 C.ar  191  HIS191      0.1986
     50  NE2       37.3280   71.8030   58.0220 N.ar  191  HIS191     -0.2212
     51  N         35.4760   69.1670   53.9610 N.am  192  VAL192     -0.1980
     52  CA        34.1180   68.6640   54.2760 C.3   192  VAL192      0.1595
     53  C         33.8600   67.2760   53.6440 C.2   192  VAL192      0.2287
     54  O         33.1930   66.4200   54.2460 O.2   192  VAL192     -0.2864
     55  CB        32.9910   69.7080   53.8820 C.3   192  VAL192      0.0276
     56  CG1       31.5610   69.1160   54.2190 C.3   192  VAL192      0.0022
     57  CG2       33.1840   71.0380   54.6770 C.3   192  VAL192      0.0022
     58  N         22.1550   80.2230   60.0580 N.3   235  PHE235     -0.1241
     59  CA        23.5150   79.8560   59.6210 C.3   235  PHE235      0.1605
     60  C         24.5720   80.3450   60.6400 C.2   235  PHE235      0.2264
     61  O         24.5300   81.5090   61.0810 O.2   235  PHE235     -0.2867
     62  CB        23.7970   80.5190   58.2250 C.3   235  PHE235      0.0534
     63  CG        25.2260   80.3440   57.6950 C.ar  235  PHE235     -0.0203
     64  CD1       25.7800   79.0620   57.4370 C.ar  235  PHE235     -0.0042
     65  CD2       26.0300   81.4850   57.4720 C.ar  235  PHE235     -0.0042
     66  CE1       27.1230   78.9160   56.9690 C.ar  235  PHE235     -0.0003
     67  CE2       27.3800   81.3670   57.0160 C.ar  235  PHE235     -0.0003
     68  CZ        27.9340   80.0770   56.7590 C.ar  235  PHE235     -0.0000
     69  N         10.6170   81.3960   50.3890 N.3   294  TYR294     -0.1241
     70  CA        11.7680   80.4990   50.1060 C.3   294  TYR294      0.1605
     71  C         11.3050   79.1220   49.6030 C.2   294  TYR294      0.2264
     72  O         10.3260   78.5350   50.1180 O.2   294  TYR294     -0.2867
     73  CB        12.6510   80.3040   51.3600 C.3   294  TYR294      0.0534
     74  CG        13.2080   81.6280   51.9000 C.ar  294  TYR294     -0.0201
     75  CD1       12.4600   82.4140   52.7880 C.ar  294  TYR294     -0.0009
     76  CD2       14.4670   82.1340   51.4630 C.ar  294  TYR294     -0.0009
     77  CE1       12.9420   83.6790   53.2460 C.ar  294  TYR294      0.0417
     78  CE2       14.9560   83.4240   51.9040 C.ar  294  TYR294      0.0417
     79  CZ        14.1860   84.1700   52.7930 C.ar  294  TYR294      0.1957
     80  OH        14.6470   85.4000   53.2460 O.3   294  TYR294     -0.2866
     81  N         12.8990   75.3590   48.9480 N.3   296  TYR296     -0.1241
     82  CA        14.0290   74.3940   49.1200 C.3   296  TYR296      0.1605
     83  C         13.7740   73.0530   48.3320 C.2   296  TYR296      0.2264
     84  O         12.6970   72.4260   48.4390 O.2   296  TYR296     -0.2867
     85  CB        14.2190   74.0720   50.6230 C.3   296  TYR296      0.0534
     86  CG        14.6690   75.2370   51.5100 C.ar  296  TYR296     -0.0201
     87  CD1       16.0150   75.3800   51.9180 C.ar  296  TYR296     -0.0009
     88  CD2       13.7280   76.1500   52.0220 C.ar  296  TYR296     -0.0009
     89  CE1       16.4130   76.4050   52.8250 C.ar  296  TYR296      0.0417
     90  CE2       14.1030   77.1600   52.9170 C.ar  296  TYR296      0.0417
     91  CZ        15.4390   77.2940   53.3190 C.ar  296  TYR296      0.1957
     92  OH        15.7500   78.3220   54.1950 O.3   296  TYR296     -0.2866
     93  N         18.8070   75.8480   56.2620 N.3   311  LEU311     -0.1231
     94  CA        19.4730   77.0470   56.7380 C.3   311  LEU311      0.1693
     95  C         18.7610   78.3630   56.3640 C.2   311  LEU311      0.2592
     96  O         18.2490   78.5090   55.2510 O.2   311  LEU311     -0.2718
     97  CB        20.9090   77.0180   56.2090 C.3   311  LEU311      0.0284
     98  CG        21.8060   75.8550   56.6770 C.3   311  LEU311      0.0019
     99  CD1       23.0610   75.8660   55.7920 C.3   311  LEU311      0.0001
    100  CD2       22.2040   76.0170   58.2100 C.3   311  LEU311      0.0001
    101  N         18.7790   79.3180   57.2960 N.am  312  VAL312     -0.1966
    102  CA        18.1340   80.6460   57.1860 C.3   312  VAL312      0.1727
    103  C         19.1920   81.6950   57.5590 C.2   312  VAL312      0.2616
    104  O         20.0260   81.4360   58.4390 O.2   312  VAL312     -0.2715
    105  CB        16.9680   80.7690   58.2450 C.3   312  VAL312      0.0290
    106  CG1       16.1860   82.0940   58.0590 C.3   312  VAL312      0.0023
    107  CG2       16.0030   79.5460   58.1290 C.3   312  VAL312      0.0023
    108  N         19.1220   82.8830   56.9670 N.am  313  SER313     -0.1950
    109  CA        20.0900   83.9660   57.2410 C.3   313  SER313      0.1924
    110  C         19.5510   84.9280   58.3140 C.2   313  SER313      0.2314
    111  O         18.4190   85.4060   58.1710 O.2   313  SER313     -0.2863
    112  CB        20.3180   84.7660   55.9400 C.3   313  SER313      0.2116
    113  OG        21.2830   85.7770   56.0870 O.3   313  SER313     -0.2180
    114  N         24.2330   86.8280   55.8770 N.3   319  VAL319     -0.1231
    115  CA        24.8530   86.6970   54.5530 C.3   319  VAL319      0.1692
    116  C         23.8970   87.0090   53.4080 C.2   319  VAL319      0.2591
    117  O         24.3350   87.4040   52.3280 O.2   319  VAL319     -0.2718
    118  CB        25.4890   85.2750   54.3700 C.3   319  VAL319      0.0266
    119  CG1       26.6020   85.1050   55.3780 C.3   319  VAL319      0.0020
    120  CG2       24.4630   84.1770   54.6560 C.3   319  VAL319      0.0020
    121  N         22.6020   86.8380   53.6400 N.am  320  GLU320     -0.1979
    122  CA        21.6190   87.1200   52.6040 C.3   320  GLU320      0.1602
    123  C         21.5430   88.5950   52.1610 C.2   320  GLU320      0.2287
    124  O         21.0760   88.8780   51.0510 O.2   320  GLU320     -0.2864
    125  CB        20.2290   86.6460   53.0240 C.3   320  GLU320      0.0415
    126  CG        19.2540   86.6080   51.8720 C.3   320  GLU320      0.1163
    127  CD        17.9230   85.9510   52.2620 C.2   320  GLU320      0.3649
    128  OE1       17.9350   84.9800   53.0520 O.co2 320  GLU320     -0.2457
    129  OE2       16.8740   86.3770   51.7590 O.co2 320  GLU320     -0.2457
    130  N         18.1360   92.4840   44.3400 N.3   327  ARG327     -0.1245
    131  CA        16.7680   92.0300   44.6030 C.3   327  ARG327      0.1563
    132  C         15.7660   93.1900   44.5420 C.2   327  ARG327      0.2260
    133  O         14.5710   93.0040   44.2390 O.2   327  ARG327     -0.2867
    134  CB        16.6830   91.3530   46.0180 C.3   327  ARG327      0.0307
    135  CG        15.2590   91.0390   46.4650 C.3   327  ARG327      0.0489
    136  CD        15.1610   90.2890   47.8020 C.3   327  ARG327      0.2205
    137  NE        15.5800   88.8870   47.7430 N.pl3 327  ARG327     -0.0865
    138  CZ        15.8410   88.1700   48.8310 C.cat 327  ARG327      0.5346
    139  NH1       15.7110   88.7240   50.0370 N.pl3 327  ARG327      0.1354
    140  NH2       16.2810   86.9340   48.7390 N.pl3 327  ARG327      0.1354
    141  N         20.7560   79.5640   45.2470 N.3   339  LEU339     -0.1245
    142  CA        21.8710   79.1420   46.1300 C.3   339  LEU339      0.1561
    143  C         22.0120   77.6020   45.9440 C.2   339  LEU339      0.2260
    144  O         21.0310   76.8370   46.1680 O.2   339  LEU339     -0.2867
    145  CB        21.5570   79.4680   47.6240 C.3   339  LEU339      0.0270
    146  CG        22.5470   78.8630   48.6320 C.3   339  LEU339      0.0019
    147  CD1       24.0300   79.3360   48.3290 C.3   339  LEU339      0.0001
    148  CD2       22.1250   79.3320   50.0690 C.3   339  LEU339      0.0001
    149  N         23.9440   74.1440   47.1360 N.3   341  ILE341     -0.1245
    150  CA        24.7050   73.6260   48.2820 C.3   341  ILE341      0.1561
    151  C         25.1630   72.1540   48.1130 C.2   341  ILE341      0.2260
    152  O         24.3690   71.3120   47.6550 O.2   341  ILE341     -0.2867
    153  CB        23.8010   73.6650   49.5740 C.3   341  ILE341      0.0252
    154  CG1       23.4140   75.1130   49.9180 C.3   341  ILE341      0.0019
    155  CG2       24.5310   72.9800   50.7830 C.3   341  ILE341      0.0019
    156  CD1       22.3740   75.2470   51.1220 C.3   341  ILE341      0.0001
    157  N         27.6770   69.3450   50.5620 N.3   343  TYR343     -0.1241
    158  CA        28.6590   69.1030   51.6610 C.3   343  TYR343      0.1605
    159  C         29.7830   68.1690   51.1870 C.2   343  TYR343      0.2264
    160  O         30.0090   67.0340   51.7150 O.2   343  TYR343     -0.2867
    161  CB        27.9470   68.5290   52.9270 C.3   343  TYR343      0.0534
    162  CG        26.8590   69.4750   53.4710 C.ar  343  TYR343     -0.0201
    163  CD1       27.1320   70.8350   53.6620 C.ar  343  TYR343     -0.0009
    164  CD2       25.6000   68.9960   53.8600 C.ar  343  TYR343     -0.0009
    165  CE1       26.1880   71.7160   54.2380 C.ar  343  TYR343      0.0417
    166  CE2       24.6290   69.8860   54.4480 C.ar  343  TYR343      0.0417
    167  CZ        24.9430   71.2420   54.6260 C.ar  343  TYR343      0.1957
    168  OH        24.0240   72.1680   55.1410 O.3   343  TYR343     -0.2866
    169  N         31.3200   75.1320   49.3770 N.3   380  ASN380     -0.1225
    170  CA        30.1650   74.2600   49.7120 C.3   380  ASN380      0.1785
    171  C         28.8070   75.0230   49.3780 C.2   380  ASN380      0.2597
    172  O         27.7420   74.3890   49.2710 O.2   380  ASN380     -0.2718
    173  CB        30.1440   73.9020   51.2220 C.3   380  ASN380      0.1169
    174  CG        31.2120   72.8710   51.6420 C.2   380  ASN380      0.2627
    175  OD1       32.4380   73.0840   51.5110 O.2   380  ASN380     -0.2716
    176  ND2       30.7510   71.7830   52.2040 N.am  380  ASN380     -0.0877
    177  N         28.8410   76.3550   49.2210 N.am  381  GLY381     -0.1957
    178  CA        27.6060   77.1400   48.8990 C.3   381  GLY381      0.1869
    179  C         27.9540   78.1070   47.7450 C.2   381  GLY381      0.2309
    180  O         28.8890   78.9490   47.8880 O.2   381  GLY381     -0.2863
    181  N         26.3740   80.9510   45.1480 N.3   383  TRP383     -0.1241
    182  CA        25.2530   81.8740   44.8600 C.3   383  TRP383      0.1605
    183  C         25.2550   82.1710   43.3490 C.2   383  TRP383      0.2264
    184  O         26.3210   82.4840   42.7820 O.2   383  TRP383     -0.2867
    185  CB        25.4500   83.1850   45.6370 C.3   383  TRP383      0.0550
    186  CG        25.3810   83.0230   47.1700 C.ar  383  TRP383      0.0003
    187  CD1       26.3900   82.6070   48.0050 C.ar  383  TRP383      0.0946
    188  CD2       24.2410   83.2680   48.0170 C.ar  383  TRP383      0.0152
    189  NE1       25.9490   82.5890   49.3170 N.ar  383  TRP383     -0.2442
    190  CE2       24.6410   82.9890   49.3550 C.ar  383  TRP383      0.0810
    191  CE3       22.9300   83.6970   47.7800 C.ar  383  TRP383      0.0012
    192  CZ2       23.7660   83.1330   50.4610 C.ar  383  TRP383      0.0191
    193  CZ3       22.0520   83.8490   48.9010 C.ar  383  TRP383      0.0001
    194  CH2       22.4870   83.5670   50.2080 C.ar  383  TRP383      0.0015
    195  N         32.9850   82.4120   54.6900 N.3   406  PRO406     -0.2102
    196  CA        33.4820   81.0360   54.8060 C.3   406  PRO406      0.1504
    197  C         32.7970   80.0100   53.8940 C.2   406  PRO406      0.2576
    198  O         31.5780   79.9240   53.8790 O.2   406  PRO406     -0.2718
    199  CB        33.2560   80.7050   56.3020 C.3   406  PRO406      0.0282
    200  CG        32.1480   81.6200   56.7160 C.3   406  PRO406      0.0208
    201  CD        32.4430   82.8970   55.9800 C.3   406  PRO406      0.0893
    202  N         33.5820   79.2290   53.1520 N.am  407  PHE407     -0.1963
    203  CA        33.0540   78.1530   52.2920 C.3   407  PHE407      0.1771
    204  C         32.0680   78.5670   51.1970 C.2   407  PHE407      0.2619
    205  O         31.2730   77.7210   50.7340 O.2   407  PHE407     -0.2715
    206  CB        32.3680   77.0810   53.1490 C.3   407  PHE407      0.0574
    207  CG        33.2390   76.5530   54.2600 C.ar  407  PHE407     -0.0200
    208  CD1       34.2650   75.6470   53.9860 C.ar  407  PHE407     -0.0042
    209  CD2       33.0450   76.9840   55.5740 C.ar  407  PHE407     -0.0042
    210  CE1       35.1100   75.1590   55.0260 C.ar  407  PHE407     -0.0003
    211  CE2       33.8620   76.5170   56.6050 C.ar  407  PHE407     -0.0003
    212  CZ        34.9030   75.5930   56.3320 C.ar  407  PHE407     -0.0000
    213  N         32.1400   79.8230   50.7590 N.am  408  MET408     -0.1977
    214  CA        31.2230   80.3220   49.7230 C.3   408  MET408      0.1605
    215  C         31.8820   81.0370   48.5320 C.2   408  MET408      0.2287
    216  O         33.0470   81.4940   48.6080 O.2   408  MET408     -0.2864
    217  CB        30.2630   81.3630   50.3190 C.3   408  MET408      0.0413
    218  CG        29.0680   80.8650   51.0780 C.3   408  MET408      0.0598
    219  SD        28.3910   82.3340   51.9560 S.3   408  MET408     -0.1393
    220  CE        28.3240   81.6810   53.5740 C.3   408  MET408      0.0692
    221  N         13.1650   83.2060   46.6830 N.3   446  SER446     -0.1202
    222  CA        14.5760   82.7790   46.7880 C.3   446  SER446      0.2020
    223  C         14.5550   81.2670   46.5930 C.2   446  SER446      0.2619
    224  O         13.6860   80.5640   47.1710 O.2   446  SER446     -0.2717
    225  CB        15.2060   83.0610   48.1770 C.3   446  SER446      0.2103
    226  OG        15.3370   84.4270   48.4000 O.3   446  SER446     -0.2182
    227  N         15.5060   80.7570   45.8100 N.am  447  ILE447     -0.1965
    228  CA        15.5770   79.3240   45.5120 C.3   447  ILE447      0.1727
    229  C         16.8330   78.6710   46.1010 C.2   447  ILE447      0.2616
    230  O         17.9470   79.2030   45.9290 O.2   447  ILE447     -0.2715
    231  CB        15.6110   79.1180   43.9600 C.3   447  ILE447      0.0290
    232  CG1       14.3780   79.8090   43.3260 C.3   447  ILE447      0.0022
    233  CG2       15.6690   77.5980   43.6310 C.3   447  ILE447      0.0023
    234  CD1       14.4360   79.8610   41.7670 C.3   447  ILE447      0.0001
    235  N         16.6650   77.5350   46.7940 N.am  448  ILE448     -0.1977
    236  CA        17.8110   76.7890   47.3760 C.3   448  ILE448      0.1596
    237  C         17.7550   75.3250   46.8600 C.2   448  ILE448      0.2287
    238  O         16.7190   74.6350   46.9920 O.2   448  ILE448     -0.2864
    239  CB        17.7700   76.7870   48.9860 C.3   448  ILE448      0.0276
    240  CG1       17.7300   78.2260   49.5670 C.3   448  ILE448      0.0022
    241  CG2       19.0340   76.0450   49.5420 C.3   448  ILE448      0.0022
    242  CD1       16.3020   78.8200   49.8020 C.3   448  ILE448      0.0001
@<TRIPOS>BOND
     1   234   232    1
     2   184   183    2
     3   232   231    1
     4   183   182    1
     5   233   231    1
     6   231   228    1
     7   133   132    2
     8   130   131    1
     9   132   131    1
    10   131   134    1
    11   182   181    1
    12   182   185    1
    13   141   142    1
    14   228   227    1
    15   228   229    1
    16   185   186    1
    17   227   223   am
    18   230   229    2
    19   143   142    1
    20   143   144    2
    21   134   135    1
    22   229   235   am
    23   142   145    1
    24   135   136    1
    25   223   222    1
    26   223   224    2
    27   221   222    1
    28   222   225    1
    29   235   236    1
    30   237   238    2
    31   237   236    1
    32   149   150    1
    33   186   187   ar
    34   186   188   ar
    35   236   239    1
    36   145   146    1
    37   152   151    2
    38   137   136    1
    39   137   138    2
    40   179   180    2
    41   179   178    1
    42   191   188   ar
    43   191   193   ar
    44   187   189   ar
    45   188   190   ar
    46   151   150    1
    47   225   226    1
    48   150   153    1
    49   147   146    1
    50    83    84    2
    51    83    82    1
    52   215   216    2
    53   215   214    1
    54   146   148    1
    55   140   138    1
    56   138   139    1
    57   178   177    1
    58   193   194   ar
    59    81    82    1
    60   239   241    1
    61   239   240    1
    62    82    85    1
    63   177   171   am
    64   172   171    2
    65   189   190   ar
    66   190   192   ar
    67   169   170    1
    68   171   170    1
    69   240   242    1
    70   153   154    1
    71   153   155    1
    72    71    70    1
    73    71    72    2
    74   170   173    1
    75   214   217    1
    76   214   213    1
    77   154   156    1
    78    70    69    1
    79    70    73    1
    80   194   192   ar
    81   217   218    1
    82   157   158    1
    83    85    86    1
    84   205   204    2
    85   213   204   am
    86   124   123    2
    87   218   219    1
    88   159   158    1
    89   159   160    2
    90   204   203    1
    91   173   174    1
    92    73    74    1
    93    76    74   ar
    94    76    78   ar
    95    86    87   ar
    96    86    88   ar
    97   175   174    2
    98   174   176   am
    99   158   161    1
   100   129   127   ar
   101   126   127    1
   102   126   125    1
   103    74    75   ar
   104    78    79   ar
   105    87    89   ar
   106   219   220    1
   107    88    90   ar
   108   123   122    1
   109   127   128   ar
   110   203   206    1
   111   203   202    1
   112   117   116    2
   113   122   125    1
   114   122   121    1
   115    75    77   ar
   116    79    80    1
   117    79    77   ar
   118    41    42    1
   119    89    91   ar
   120    90    91   ar
   121   161   162    1
   122   206   207    1
   123   202   197   am
   124    91    92    1
   125   116   121   am
   126   116   115    1
   127   162   163   ar
   128   162   164   ar
   129    53    54    2
   130    53    52    1
   131   163   165   ar
   132   164   166   ar
   133   198   197    2
   134    55    56    1
   135    55    52    1
   136    55    57    1
   137   197   196    1
   138    51    52    1
   139    51    43   am
   140   208   207   ar
   141   208   210   ar
   142    42    43    1
   143    42    45    1
   144   165   167   ar
   145   207   209   ar
   146   118   115    1
   147   118   120    1
   148   118   119    1
   149   166   167   ar
   150   115   114    1
   151    43    44    2
   152    45    46    1
   153   167   168    1
   154   195   196    1
   155   195   201    1
   156   196   199    1
   157   210   212   ar
   158    96    95    2
   159   209   211   ar
   160    99    98    1
   161   112   113    1
   162   112   109    1
   163   201   200    1
   164    46    48   ar
   165    46    47   ar
   166    97    98    1
   167    97    94    1
   168    93    94    1
   169   199   200    1
   170   212   211   ar
   171    95    94    1
   172    95   101   am
   173    48    50   ar
   174    98   100    1
   175    68    66   ar
   176    68    67   ar
   177   108   109    1
   178   108   103   am
   179    66    64   ar
   180    67    65   ar
   181    47    49   ar
   182   102   101    1
   183   102   103    1
   184   102   105    1
   185    29    28    2
   186   109   110    1
   187    64    63   ar
   188    27    28    1
   189    27    26    1
   190    65    63   ar
   191   103   104    2
   192    63    62    1
   193    23    22    1
   194    23    26    1
   195    23    24    1
   196    28    30   am
   197    50    49   ar
   198    25    24    2
   199   106   105    1
   200   107   105    1
   201   111   110    2
   202    62    59    1
   203    40    39   ar
   204    40    38   ar
   205    39    37   ar
   206    16    15    2
   207    17    14    1
   208    38    36   ar
   209    37    36   ar
   210    59    58    1
   211    59    60    1
   212    15    14    1
   213    15    18   am
   214     8     7    2
   215    14    13    1
   216    36    35    1
   217    19    18    1
   218    19    20    1
   219    60    61    2
   220    11    10    1
   221    20    21    2
   222     7    13   am
   223     7     6    1
   224    35    32    1
   225    10     9    1
   226    10    12    1
   227     9     6    1
   228     6     5    1
   229     5     3   am
   230    32    33    1
   231    32    31    1
   232    33    34    2
   233     4     3    2
   234     3     2    1
   235     1     2    1
