@<TRIPOS>MOLECULE
tmp/2zyiB00.pdb
 230 223 0 0 0
SMALL
GASTEIGER

@<TRIPOS>ATOM
      1  N         31.3380   69.7750   62.1310 N.3    11  GLY11      -0.1210
      2  CA        32.3060   70.8710   62.2390 C.3    11  GLY11       0.1956
      3  C         31.7380   72.2840   62.0320 C.2    11  GLY11       0.2612
      4  O         30.5260   72.5010   62.0850 O.2    11  GLY11      -0.2717
      5  N         32.6090   73.2480   61.7880 N.am   12  LEU12      -0.1965
      6  CA        32.1960   74.6360   61.5780 C.3    12  LEU12       0.1728
      7  C         31.2950   74.7490   60.3440 C.2    12  LEU12       0.2616
      8  O         31.6160   74.2200   59.2760 O.2    12  LEU12      -0.2715
      9  CB        33.4380   75.5290   61.4140 C.3    12  LEU12       0.0311
     10  CG        33.3950   77.0570   61.2300 C.3    12  LEU12       0.0022
     11  CD1       32.9210   77.3560   59.8340 C.3    12  LEU12       0.0001
     12  CD2       32.4810   77.7350   62.2640 C.3    12  LEU12       0.0001
     13  N         30.1680   75.4510   60.5000 N.am   13  ALA13      -0.1963
     14  CA        29.2020   75.6020   59.4280 C.3    13  ALA13       0.1728
     15  C         28.5490   74.2750   59.0140 C.2    13  ALA13       0.2616
     16  O         27.9120   74.2240   57.9940 O.2    13  ALA13      -0.2715
     17  CB        29.8850   76.2740   58.1810 C.3    13  ALA13       0.0334
     18  N         28.7070   73.2110   59.8000 N.am   14  GLY14      -0.1955
     19  CA        28.0940   71.9210   59.4820 C.3    14  GLY14       0.1869
     20  C         26.7790   71.7310   60.2560 C.2    14  GLY14       0.2309
     21  O         26.3330   72.6460   60.9540 O.2    14  GLY14      -0.2863
     22  N         25.7440   66.3360   57.2690 N.3    18  GLN18      -0.1245
     23  CA        26.9390   65.6090   56.8490 C.3    18  GLN18       0.1566
     24  C         26.9580   64.1130   57.2980 C.2    18  GLN18       0.2260
     25  O         27.8710   63.3560   56.9220 O.2    18  GLN18      -0.2867
     26  CB        28.2160   66.3000   57.3740 C.3    18  GLN18       0.0367
     27  CG        28.6090   67.6440   56.7340 C.3    18  GLN18       0.0905
     28  CD        27.7260   68.8220   57.1580 C.2    18  GLN18       0.2608
     29  OE1       26.8480   69.2990   56.3830 O.2    18  GLN18      -0.2717
     30  NE2       27.9350   69.2950   58.3740 N.am   18  GLN18      -0.0878
     31  N         33.7340   65.4700   63.0890 N.3   116  HIS116     -0.1226
     32  CA        34.2810   65.8840   61.8040 C.3   116  HIS116      0.1752
     33  C         34.7910   67.3220   61.8910 C.2   116  HIS116      0.2596
     34  O         34.0840   68.2110   62.3500 O.2   116  HIS116     -0.2718
     35  CB        33.2380   65.7750   60.6910 C.3   116  HIS116      0.0759
     36  CG        33.7410   66.2580   59.3600 C.ar  116  HIS116      0.0818
     37  ND1       33.1680   67.3150   58.6840 N.ar  116  HIS116     -0.2268
     38  CD2       34.7800   65.8380   58.5950 C.ar  116  HIS116      0.1154
     39  CE1       33.8340   67.5210   57.5590 C.ar  116  HIS116      0.1986
     40  NE2       34.8170   66.6410   57.4860 N.ar  116  HIS116     -0.2212
     41  N         36.0410   67.5220   61.4710 N.am  117  SER117     -0.1952
     42  CA        36.6730   68.8330   61.4160 C.3   117  SER117      0.1924
     43  C         36.7030   69.5290   62.7940 C.2   117  SER117      0.2314
     44  O         37.3360   69.0050   63.7020 O.2   117  SER117     -0.2863
     45  CB        35.9410   69.6590   60.3570 C.3   117  SER117      0.2116
     46  OG        36.7650   70.7040   59.8930 O.3   117  SER117     -0.2180
     47  N         37.6200   67.5220   51.9900 N.3   185  HIS185     -0.1226
     48  CA        37.1150   67.6550   53.3640 C.3   185  HIS185      0.1752
     49  C         35.7100   67.1240   53.7570 C.2   185  HIS185      0.2595
     50  O         35.5660   66.2830   54.6570 O.2   185  HIS185     -0.2718
     51  CB        37.2650   69.1120   53.7660 C.3   185  HIS185      0.0759
     52  CG        37.1040   69.3390   55.2310 C.ar  185  HIS185      0.0818
     53  ND1       37.8410   68.6490   56.1730 N.ar  185  HIS185     -0.2268
     54  CD2       36.3010   70.1830   55.9190 C.ar  185  HIS185      0.1154
     55  CE1       37.4950   69.0620   57.3830 C.ar  185  HIS185      0.1986
     56  NE2       36.5630   69.9940   57.2560 N.ar  185  HIS185     -0.2212
     57  N         34.6690   67.6290   53.1180 N.am  186  VAL186     -0.1980
     58  CA        33.3330   67.1370   53.4360 C.3   186  VAL186      0.1595
     59  C         33.1480   65.7300   52.8450 C.2   186  VAL186      0.2287
     60  O         32.5500   64.8450   53.4780 O.2   186  VAL186     -0.2864
     61  CB        32.2170   68.0710   52.9010 C.3   186  VAL186      0.0276
     62  CG1       30.8570   67.4230   53.1490 C.3   186  VAL186      0.0022
     63  CG2       32.2770   69.4460   53.6090 C.3   186  VAL186      0.0022
     64  N         21.7070   78.2860   59.0390 N.3   229  PHE229     -0.1241
     65  CA        23.0400   77.9030   58.5770 C.3   229  PHE229      0.1605
     66  C         24.0940   78.3700   59.6110 C.2   229  PHE229      0.2264
     67  O         24.0300   79.4830   60.0920 O.2   229  PHE229     -0.2867
     68  CB        23.3190   78.5790   57.2200 C.3   229  PHE229      0.0534
     69  CG        24.7270   78.4580   56.7580 C.ar  229  PHE229     -0.0203
     70  CD1       25.2970   77.2080   56.5460 C.ar  229  PHE229     -0.0042
     71  CD2       25.4920   79.6100   56.5120 C.ar  229  PHE229     -0.0042
     72  CE1       26.6220   77.0940   56.0880 C.ar  229  PHE229     -0.0003
     73  CE2       26.8020   79.5340   56.0640 C.ar  229  PHE229     -0.0003
     74  CZ        27.3900   78.2650   55.8410 C.ar  229  PHE229     -0.0000
     75  N         10.4470   79.5370   49.7090 N.3   288  TYR288     -0.1241
     76  CA        11.5520   78.6510   49.3650 C.3   288  TYR288      0.1605
     77  C         11.0490   77.2980   48.8490 C.2   288  TYR288      0.2264
     78  O         10.0080   76.7600   49.3010 O.2   288  TYR288     -0.2867
     79  CB        12.4610   78.4200   50.5520 C.3   288  TYR288      0.0534
     80  CG        13.0120   79.7000   51.0950 C.ar  288  TYR288     -0.0201
     81  CD1       12.3320   80.3940   52.1300 C.ar  288  TYR288     -0.0009
     82  CD2       14.1770   80.2920   50.5340 C.ar  288  TYR288     -0.0009
     83  CE1       12.8030   81.6560   52.5830 C.ar  288  TYR288      0.0417
     84  CE2       14.6430   81.5610   50.9800 C.ar  288  TYR288      0.0417
     85  CZ        13.9450   82.2320   51.9980 C.ar  288  TYR288      0.1957
     86  OH        14.3160   83.5170   52.3770 O.3   288  TYR288     -0.2866
     87  N         12.6250   73.5690   48.1740 N.3   290  TYR290     -0.1241
     88  CA        13.7390   72.6340   48.3800 C.3   290  TYR290      0.1605
     89  C         13.4040   71.3670   47.5830 C.2   290  TYR290      0.2264
     90  O         12.2840   70.8500   47.6530 O.2   290  TYR290     -0.2867
     91  CB        13.8760   72.2520   49.8690 C.3   290  TYR290      0.0534
     92  CG        14.3250   73.3950   50.7720 C.ar  290  TYR290     -0.0201
     93  CD1       15.6730   73.5330   51.1880 C.ar  290  TYR290     -0.0009
     94  CD2       13.4150   74.3220   51.2130 C.ar  290  TYR290     -0.0009
     95  CE1       16.0660   74.5870   52.0240 C.ar  290  TYR290      0.0417
     96  CE2       13.7940   75.3760   52.0600 C.ar  290  TYR290      0.0417
     97  CZ        15.1010   75.5090   52.4590 C.ar  290  TYR290      0.1957
     98  OH        15.4140   76.5950   53.2690 O.3   290  TYR290     -0.2866
     99  N         18.4350   74.0330   55.3920 N.3   305  LEU305     -0.1231
    100  CA        19.1040   75.2150   55.8520 C.3   305  LEU305      0.1693
    101  C         18.4070   76.5380   55.5470 C.2   305  LEU305      0.2592
    102  O         17.9080   76.7970   54.4260 O.2   305  LEU305     -0.2718
    103  CB        20.5410   75.2200   55.3060 C.3   305  LEU305      0.0284
    104  CG        21.4370   74.0350   55.7610 C.3   305  LEU305      0.0019
    105  CD1       22.6410   74.0300   54.9110 C.3   305  LEU305      0.0001
    106  CD2       21.8610   74.1330   57.2920 C.3   305  LEU305      0.0001
    107  N         18.4040   77.4080   56.5430 N.am  306  VAL306     -0.1966
    108  CA        17.8080   78.7090   56.3590 C.3   306  VAL306      0.1727
    109  C         18.8130   79.7940   56.6870 C.2   306  VAL306      0.2616
    110  O         19.6630   79.6350   57.5540 O.2   306  VAL306     -0.2715
    111  CB        16.5900   78.8640   57.2540 C.3   306  VAL306      0.0290
    112  CG1       15.8710   80.2030   56.9500 C.3   306  VAL306      0.0023
    113  CG2       15.6560   77.6500   57.0380 C.3   306  VAL306      0.0023
    114  N         18.7010   80.9070   56.0050 N.am  307  SER307     -0.1950
    115  CA        19.5910   82.0350   56.2220 C.3   307  SER307      0.1924
    116  C         19.0700   82.9230   57.3470 C.2   307  SER307      0.2314
    117  O         17.9180   83.3540   57.3240 O.2   307  SER307     -0.2863
    118  CB        19.6670   82.8780   54.9420 C.3   307  SER307      0.2116
    119  OG        20.8000   83.7280   54.9670 O.3   307  SER307     -0.2180
    120  N         23.8380   84.7830   54.9260 N.3   313  VAL313     -0.1231
    121  CA        24.3840   84.7300   53.5870 C.3   313  VAL313      0.1692
    122  C         23.3860   85.0250   52.4960 C.2   313  VAL313      0.2591
    123  O         23.7700   85.5270   51.4570 O.2   313  VAL313     -0.2718
    124  CB        25.1060   83.3970   53.3650 C.3   313  VAL313      0.0266
    125  CG1       26.0910   83.2310   54.5070 C.3   313  VAL313      0.0020
    126  CG2       24.1380   82.2390   53.3540 C.3   313  VAL313      0.0020
    127  N         22.1060   84.7750   52.7380 N.am  314  GLU314     -0.1979
    128  CA        21.0890   85.0840   51.7340 C.3   314  GLU314      0.1602
    129  C         21.0520   86.6000   51.3620 C.2   314  GLU314      0.2287
    130  O         20.5470   86.9470   50.2910 O.2   314  GLU314     -0.2864
    131  CB        19.7070   84.6430   52.2220 C.3   314  GLU314      0.0415
    132  CG        18.5720   84.9580   51.2760 C.3   314  GLU314      0.1163
    133  CD        17.3780   84.0360   51.5020 C.2   314  GLU314      0.3649
    134  OE1       17.3200   83.4700   52.6200 O.co2 314  GLU314     -0.2457
    135  OE2       16.5100   83.8700   50.5820 O.co2 314  GLU314     -0.2457
    136  N         20.2440   77.6890   44.5860 N.3   333  LEU333     -0.1245
    137  CA        21.3960   77.3910   45.4170 C.3   333  LEU333      0.1561
    138  C         21.5680   75.8690   45.2010 C.2   333  LEU333      0.2260
    139  O         20.5900   75.0960   45.3380 O.2   333  LEU333     -0.2867
    140  CB        21.0700   77.7480   46.8700 C.3   333  LEU333      0.0270
    141  CG        22.0490   77.1670   47.8940 C.3   333  LEU333      0.0019
    142  CD1       23.5120   77.6420   47.6030 C.3   333  LEU333      0.0001
    143  CD2       21.5890   77.6140   49.3410 C.3   333  LEU333      0.0001
    144  N         23.3590   72.5070   46.4120 N.3   335  ILE335     -0.1245
    145  CA        24.0740   71.9590   47.5620 C.3   335  ILE335      0.1561
    146  C         24.4920   70.5010   47.4170 C.2   335  ILE335      0.2260
    147  O         23.6750   69.6800   47.0140 O.2   335  ILE335     -0.2867
    148  CB        23.2160   72.0090   48.8510 C.3   335  ILE335      0.0252
    149  CG1       22.8270   73.4430   49.1490 C.3   335  ILE335      0.0019
    150  CG2       23.9980   71.3780   50.0160 C.3   335  ILE335      0.0019
    151  CD1       21.8840   73.6270   50.3140 C.3   335  ILE335      0.0001
    152  N         27.0480   67.7280   49.7460 N.3   337  TYR337     -0.1241
    153  CA        28.0360   67.5280   50.8260 C.3   337  TYR337      0.1605
    154  C         29.1710   66.6170   50.3320 C.2   337  TYR337      0.2264
    155  O         29.3960   65.4830   50.8370 O.2   337  TYR337     -0.2867
    156  CB        27.3520   66.9380   52.0840 C.3   337  TYR337      0.0534
    157  CG        26.3150   67.9130   52.6310 C.ar  337  TYR337     -0.0201
    158  CD1       26.6200   69.2790   52.7570 C.ar  337  TYR337     -0.0009
    159  CD2       25.0630   67.4880   53.0580 C.ar  337  TYR337     -0.0009
    160  CE1       25.6890   70.2200   53.3130 C.ar  337  TYR337      0.0417
    161  CE2       24.1160   68.4190   53.6220 C.ar  337  TYR337      0.0417
    162  CZ        24.4470   69.7780   53.7390 C.ar  337  TYR337      0.1957
    163  OH        23.5520   70.6920   54.2960 O.3   337  TYR337     -0.2866
    164  N         30.5730   73.4580   48.4610 N.3   374  ASN374     -0.1225
    165  CA        29.4630   72.5640   48.8780 C.3   374  ASN374      0.1785
    166  C         28.1410   73.3340   48.5610 C.2   374  ASN374      0.2597
    167  O         27.0870   72.7350   48.4210 O.2   374  ASN374     -0.2718
    168  CB        29.4980   72.3210   50.4190 C.3   374  ASN374      0.1169
    169  CG        30.4550   71.2000   50.8360 C.2   374  ASN374      0.2627
    170  OD1       31.6160   71.1570   50.4320 O.2   374  ASN374     -0.2716
    171  ND2       29.9730   70.3090   51.6820 N.am  374  ASN374     -0.0877
    172  N         28.2310   74.6660   48.4700 N.am  375  GLY375     -0.1957
    173  CA        27.0810   75.5100   48.1770 C.3   375  GLY375      0.1869
    174  C         27.3940   76.4160   46.9760 C.2   375  GLY375      0.2309
    175  O         28.2910   77.2540   47.0490 O.2   375  GLY375     -0.2863
    176  N         25.7660   79.2020   44.4600 N.3   377  TRP377     -0.1241
    177  CA        24.6680   80.0720   44.1640 C.3   377  TRP377      0.1605
    178  C         24.6690   80.4050   42.6300 C.2   377  TRP377      0.2264
    179  O         25.6940   80.8380   42.0830 O.2   377  TRP377     -0.2867
    180  CB        24.8290   81.3550   44.9630 C.3   377  TRP377      0.0550
    181  CG        24.7960   81.1740   46.4740 C.ar  377  TRP377      0.0003
    182  CD1       25.8250   80.7990   47.2750 C.ar  377  TRP377      0.0946
    183  CD2       23.6820   81.4240   47.3460 C.ar  377  TRP377      0.0152
    184  NE1       25.4350   80.8180   48.5910 N.ar  377  TRP377     -0.2442
    185  CE2       24.1230   81.2070   48.6610 C.ar  377  TRP377      0.0810
    186  CE3       22.3500   81.8080   47.1320 C.ar  377  TRP377      0.0012
    187  CZ2       23.2860   81.3760   49.7850 C.ar  377  TRP377      0.0191
    188  CZ3       21.5000   81.9670   48.2550 C.ar  377  TRP377      0.0001
    189  CH2       21.9890   81.7530   49.5670 C.ar  377  TRP377      0.0015
    190  N         32.9540   77.5290   52.1890 N.3   401  PHE401     -0.1227
    191  CA        32.3240   76.4410   51.4430 C.3   401  PHE401      0.1736
    192  C         31.3350   76.8710   50.3450 C.2   401  PHE401      0.2595
    193  O         30.5640   76.0640   49.8340 O.2   401  PHE401     -0.2718
    194  CB        31.6240   75.5040   52.4340 C.3   401  PHE401      0.0547
    195  CG        32.5350   74.9950   53.5400 C.ar  401  PHE401     -0.0202
    196  CD1       33.5650   74.1050   53.2580 C.ar  401  PHE401     -0.0042
    197  CD2       32.3590   75.4180   54.8610 C.ar  401  PHE401     -0.0042
    198  CE1       34.4350   73.6250   54.3080 C.ar  401  PHE401     -0.0003
    199  CE2       33.2010   74.9640   55.9120 C.ar  401  PHE401     -0.0003
    200  CZ        34.2450   74.0620   55.6390 C.ar  401  PHE401     -0.0000
    201  N         31.3680   78.1360   49.9800 N.am  402  MET402     -0.1979
    202  CA        30.4830   78.6320   48.9580 C.3   402  MET402      0.1605
    203  C         31.1090   79.2560   47.7230 C.2   402  MET402      0.2287
    204  O         32.2600   79.6680   47.7160 O.2   402  MET402     -0.2864
    205  CB        29.5720   79.6810   49.5370 C.3   402  MET402      0.0413
    206  CG        28.5110   79.1220   50.3850 C.3   402  MET402      0.0598
    207  SD        27.7210   80.5030   51.1400 S.3   402  MET402     -0.1393
    208  CE        27.3870   79.7830   52.8070 C.3   402  MET402      0.0692
    209  N         12.9550   81.3190   46.0610 N.3   440  SER440     -0.1202
    210  CA        14.3470   80.8620   46.1420 C.3   440  SER440      0.2020
    211  C         14.2580   79.3760   45.9870 C.2   440  SER440      0.2619
    212  O         13.4140   78.7290   46.6120 O.2   440  SER440     -0.2717
    213  CB        14.9930   81.1450   47.4910 C.3   440  SER440      0.2103
    214  OG        15.2360   82.5200   47.5970 O.3   440  SER440     -0.2182
    215  N         15.1520   78.8480   45.1690 N.am  441  ILE441     -0.1965
    216  CA        15.1890   77.4420   44.8320 C.3   441  ILE441      0.1727
    217  C         16.4670   76.8140   45.3920 C.2   441  ILE441      0.2616
    218  O         17.5630   77.3360   45.1890 O.2   441  ILE441     -0.2715
    219  CB        15.1980   77.2840   43.3010 C.3   441  ILE441      0.0290
    220  CG1       13.9720   77.9560   42.6660 C.3   441  ILE441      0.0022
    221  CG2       15.3050   75.8370   42.9380 C.3   441  ILE441      0.0023
    222  CD1       14.0040   77.8670   41.1040 C.3   441  ILE441      0.0001
    223  N         16.3170   75.6930   46.0900 N.am  442  ILE442     -0.1977
    224  CA        17.4430   75.0210   46.6260 C.3   442  ILE442      0.1596
    225  C         17.3810   73.5950   46.1370 C.2   442  ILE442      0.2287
    226  O         16.3720   72.9020   46.2930 O.2   442  ILE442     -0.2864
    227  CB        17.4850   74.9480   48.2030 C.3   442  ILE442      0.0276
    228  CG1       17.4300   76.3200   48.8460 C.3   442  ILE442      0.0022
    229  CG2       18.7960   74.2210   48.6240 C.3   442  ILE442      0.0022
    230  CD1       16.0350   76.9200   48.8980 C.3   442  ILE442      0.0001
@<TRIPOS>BOND
     1   222   220    1
     2   179   178    2
     3   178   177    1
     4   220   219    1
     5   221   219    1
     6   219   216    1
     7   177   176    1
     8   177   180    1
     9   136   137    1
    10   216   215    1
    11   216   217    1
    12   180   181    1
    13   215   211   am
    14   218   217    2
    15   138   139    2
    16   138   137    1
    17   217   223   am
    18   137   140    1
    19   211   210    1
    20   211   212    2
    21   209   210    1
    22   223   224    1
    23   225   226    2
    24   225   224    1
    25   210   213    1
    26   144   145    1
    27   181   182   ar
    28   181   183   ar
    29   224   227    1
    30   140   141    1
    31   174   175    2
    32   174   173    1
    33   147   146    2
    34   186   183   ar
    35   186   188   ar
    36   182   184   ar
    37   183   185   ar
    38   146   145    1
    39   213   214    1
    40   145   148    1
    41    89    90    2
    42    89    88    1
    43   142   141    1
    44   204   203    2
    45   203   202    1
    46   141   143    1
    47    87    88    1
    48   173   172    1
    49   227   229    1
    50   227   228    1
    51   188   189   ar
    52    88    91    1
    53   167   166    2
    54   164   165    1
    55   172   166   am
    56   166   165    1
    57   184   185   ar
    58   185   187   ar
    59   228   230    1
    60    77    78    2
    61    77    76    1
    62   148   149    1
    63   148   150    1
    64   165   168    1
    65   202   205    1
    66   202   201    1
    67   149   151    1
    68    76    75    1
    69    76    79    1
    70   205   206    1
    71   189   187   ar
    72   152   153    1
    73   193   192    2
    74    91    92    1
    75   201   192   am
    76   130   129    2
    77   154   153    1
    78   154   155    2
    79   192   191    1
    80   206   207    1
    81   168   169    1
    82   170   169    2
    83    82    84   ar
    84    82    80   ar
    85    79    80    1
    86   135   133   ar
    87    92    93   ar
    88    92    94   ar
    89   153   156    1
    90   169   171   am
    91    84    85   ar
    92    80    81   ar
    93   207   208    1
    94    93    95   ar
    95    94    96   ar
    96   132   133    1
    97   132   131    1
    98   129   128    1
    99   191   190    1
   100   191   194    1
   101   123   122    2
   102   133   134   ar
   103   128   131    1
   104   128   127    1
   105    47    48    1
   106    85    86    1
   107    85    83   ar
   108    95    97   ar
   109    96    97   ar
   110   156   157    1
   111    81    83   ar
   112   194   195    1
   113    97    98    1
   114   122   127   am
   115   122   121    1
   116   157   158   ar
   117   157   159   ar
   118   158   160   ar
   119    59    58    1
   120    59    60    2
   121    61    62    1
   122    61    58    1
   123    61    63    1
   124   159   161   ar
   125    57    58    1
   126    57    49   am
   127   196   195   ar
   128   196   198   ar
   129   160   162   ar
   130   126   124    1
   131    48    49    1
   132    48    51    1
   133   124   121    1
   134   124   125    1
   135   195   197   ar
   136   121   120    1
   137   161   162   ar
   138   162   163    1
   139    49    50    2
   140    51    52    1
   141   198   200   ar
   142   102   101    2
   143   197   199   ar
   144   105   104    1
   145   118   119    1
   146   118   115    1
   147    52    54   ar
   148    52    53   ar
   149   103   104    1
   150   103   100    1
   151    99   100    1
   152   101   100    1
   153   101   107   am
   154   200   199   ar
   155   104   106    1
   156    74    73   ar
   157    74    72   ar
   158    54    56   ar
   159   114   115    1
   160   114   109   am
   161    73    71   ar
   162    72    70   ar
   163    53    55   ar
   164   115   116    1
   165   108   107    1
   166   108   109    1
   167   108   111    1
   168    29    28    2
   169    71    69   ar
   170    70    69   ar
   171   109   110    2
   172    27    28    1
   173    27    26    1
   174    69    68    1
   175    23    22    1
   176    23    24    1
   177    23    26    1
   178    25    24    2
   179   112   111    1
   180   113   111    1
   181    28    30   am
   182    68    65    1
   183    56    55   ar
   184   117   116    2
   185    40    39   ar
   186    40    38   ar
   187    39    37   ar
   188    16    15    2
   189    17    14    1
   190    65    64    1
   191    65    66    1
   192    38    36   ar
   193    37    36   ar
   194    15    14    1
   195    15    18   am
   196     8     7    2
   197    36    35    1
   198    14    13    1
   199    19    18    1
   200    19    20    1
   201    66    67    2
   202    11    10    1
   203    46    45    1
   204    20    21    2
   205     7    13   am
   206     7     6    1
   207    45    42    1
   208    35    32    1
   209    10     9    1
   210    10    12    1
   211     9     6    1
   212    42    41    1
   213    42    43    1
   214    41    33   am
   215     6     5    1
   216     5     3   am
   217    32    33    1
   218    32    31    1
   219    33    34    2
   220     3     4    2
   221     3     2    1
   222     1     2    1
   223    43    44    2
