@<TRIPOS>MOLECULE
tmp/2zyiA00.pdb
 232 224 0 0 0
SMALL
GASTEIGER

@<TRIPOS>ATOM
      1  N         61.2550   37.1450   63.3400 N.3    11  GLY11      -0.1210
      2  CA        60.1600   36.1980   63.4380 C.3    11  GLY11       0.1956
      3  C         60.5600   34.7590   63.2060 C.2    11  GLY11       0.2612
      4  O         61.7340   34.4020   63.2160 O.2    11  GLY11      -0.2717
      5  N         59.5840   33.9140   62.9770 N.am   12  LEU12      -0.1965
      6  CA        59.8490   32.5080   62.7850 C.3    12  LEU12       0.1728
      7  C         60.6310   32.2820   61.4870 C.2    12  LEU12       0.2616
      8  O         60.2940   32.8430   60.4440 O.2    12  LEU12      -0.2715
      9  CB        58.4940   31.7970   62.8150 C.3    12  LEU12       0.0311
     10  CG        58.2750   30.2940   62.6640 C.3    12  LEU12       0.0022
     11  CD1       59.0240   29.5110   63.7270 C.3    12  LEU12       0.0001
     12  CD2       56.7600   30.0500   62.7930 C.3    12  LEU12       0.0001
     13  N         61.6790   31.4670   61.5520 N.am   13  ALA13      -0.1963
     14  CA        62.5470   31.1930   60.3910 C.3    13  ALA13       0.1728
     15  C         63.3000   32.4840   59.9270 C.2    13  ALA13       0.2616
     16  O         63.8400   32.5390   58.8380 O.2    13  ALA13      -0.2715
     17  CB        61.7170   30.5800   59.1970 C.3    13  ALA13       0.0334
     18  N         63.3360   33.5080   60.7610 N.am   14  GLY14      -0.1955
     19  CA        64.0320   34.7190   60.3850 C.3    14  GLY14       0.1869
     20  C         65.3480   34.8660   61.1320 C.2    14  GLY14       0.2309
     21  O         65.7380   33.9480   61.8640 O.2    14  GLY14      -0.2863
     22  N         66.8870   40.1470   58.2360 N.3    18  GLN18      -0.1245
     23  CA        65.7650   40.9850   57.8900 C.3    18  GLN18       0.1566
     24  C         65.9110   42.4350   58.3610 C.2    18  GLN18       0.2260
     25  O         65.0550   43.2600   58.0570 O.2    18  GLN18      -0.2867
     26  CB        64.4490   40.4190   58.4350 C.3    18  GLN18       0.0367
     27  CG        63.9070   39.2230   57.6430 C.3    18  GLN18       0.0905
     28  CD        64.4620   37.9110   58.1730 C.2    18  GLN18       0.2608
     29  OE1       65.1710   37.1710   57.4610 O.2    18  GLN18      -0.2717
     30  NE2       64.1650   37.6240   59.4410 N.am   18  GLN18      -0.0878
     31  N         49.6670   30.6370   68.8410 N.3    54  MET54      -0.1245
     32  CA        49.8140   31.3200   67.5830 C.3    54  MET54       0.1570
     33  C         50.0400   30.2810   66.4800 C.2    54  MET54       0.2261
     34  O         49.5440   30.4100   65.3530 O.2    54  MET54      -0.2867
     35  CB        51.0180   32.2420   67.6820 C.3    54  MET54       0.0387
     36  CG        51.5670   32.6720   66.3630 C.3    54  MET54       0.0595
     37  SD        53.3420   32.7200   66.4500 S.3    54  MET54      -0.1393
     38  CE        53.8260   31.3870   65.3090 C.3    54  MET54       0.0692
     39  N         59.2380   41.7280   64.3420 N.3   116  HIS116     -0.1226
     40  CA        58.5640   41.4340   63.0970 C.3   116  HIS116      0.1752
     41  C         57.9450   40.0530   63.2570 C.2   116  HIS116      0.2597
     42  O         58.5970   39.1220   63.7560 O.2   116  HIS116     -0.2718
     43  CB        59.5320   41.4120   61.9270 C.3   116  HIS116      0.0759
     44  CG        58.9320   40.8900   60.6510 C.ar  116  HIS116      0.0818
     45  ND1       59.3920   39.7510   60.0230 N.ar  116  HIS116     -0.2268
     46  CD2       57.9550   41.3860   59.8520 C.ar  116  HIS116      0.1154
     47  CE1       58.7240   39.5690   58.8960 C.ar  116  HIS116      0.1986
     48  NE2       57.8490   40.5520   58.7660 N.ar  116  HIS116     -0.2212
     49  N         56.6730   39.9540   62.8760 N.am  117  SER117     -0.1938
     50  CA        55.9430   38.6910   62.9130 C.3   117  SER117      0.2055
     51  C         55.9850   38.0030   64.3210 C.2   117  SER117      0.2642
     52  O         55.5380   38.6270   65.3030 O.2   117  SER117     -0.2714
     53  CB        56.5170   37.8230   61.8040 C.3   117  SER117      0.2130
     54  OG        55.5510   36.9210   61.3130 O.3   117  SER117     -0.2179
     55  N         56.5120   36.7750   64.4550 N.am  118  MET118     -0.1976
     56  CA        56.5240   36.1640   65.7940 C.3   118  MET118      0.1605
     57  C         57.3070   37.0230   66.8090 C.2   118  MET118      0.2287
     58  O         57.0190   37.0070   68.0040 O.2   118  MET118     -0.2864
     59  CB        57.0520   34.7330   65.7710 C.3   118  MET118      0.0413
     60  CG        56.6960   33.9570   67.0580 C.3   118  MET118      0.0598
     61  SD        57.1900   32.1750   67.0600 S.3   118  MET118     -0.1393
     62  CE        59.0050   32.2670   67.0510 C.3   118  MET118      0.0692
     63  N         54.5080   40.3070   53.5760 N.3   185  HIS185     -0.1226
     64  CA        55.0370   40.0730   54.9190 C.3   185  HIS185      0.1752
     65  C         56.4690   40.4840   55.1910 C.2   185  HIS185      0.2595
     66  O         56.6970   41.3730   55.9860 O.2   185  HIS185     -0.2718
     67  CB        54.8390   38.6130   55.3110 C.3   185  HIS185      0.0759
     68  CG        55.0070   38.3620   56.7740 C.ar  185  HIS185      0.0818
     69  ND1       54.3400   39.0990   57.7360 N.ar  185  HIS185     -0.2268
     70  CD2       55.7120   37.4160   57.4410 C.ar  185  HIS185      0.1154
     71  CE1       54.6220   38.6080   58.9300 C.ar  185  HIS185      0.1986
     72  NE2       55.4490   37.5860   58.7780 N.ar  185  HIS185     -0.2212
     73  N         57.4330   39.8200   54.5790 N.am  186  VAL186     -0.1980
     74  CA        58.8230   40.1730   54.8120 C.3   186  VAL186      0.1595
     75  C         59.2220   41.5170   54.2390 C.2   186  VAL186      0.2287
     76  O         60.0430   42.1950   54.8250 O.2   186  VAL186     -0.2864
     77  CB        59.7800   39.0730   54.2540 C.3   186  VAL186      0.0276
     78  CG1       61.2340   39.4070   54.5820 C.3   186  VAL186      0.0022
     79  CG2       59.3570   37.6910   54.8070 C.3   186  VAL186      0.0022
     80  N         69.7300   27.8330   59.6890 N.3   229  PHE229     -0.1241
     81  CA        68.4680   28.3610   59.2670 C.3   229  PHE229      0.1605
     82  C         67.4050   28.0150   60.3020 C.2   229  PHE229      0.2264
     83  O         67.2960   26.8770   60.7010 O.2   229  PHE229     -0.2867
     84  CB        68.1110   27.7250   57.9230 C.3   229  PHE229      0.0534
     85  CG        66.7090   27.9450   57.5270 C.ar  229  PHE229     -0.0203
     86  CD1       66.2310   29.2510   57.3350 C.ar  229  PHE229     -0.0042
     87  CD2       65.8510   26.8590   57.3530 C.ar  229  PHE229     -0.0042
     88  CE1       64.9040   29.4710   56.9690 C.ar  229  PHE229     -0.0003
     89  CE2       64.5130   27.0640   56.9890 C.ar  229  PHE229     -0.0003
     90  CZ        64.0370   28.3750   56.7970 C.ar  229  PHE229     -0.0000
     91  N         80.2200   25.5190   49.5780 N.3   288  TYR288     -0.1241
     92  CA        79.1860   26.5280   49.3620 C.3   288  TYR288      0.1605
     93  C         79.7800   27.8050   48.7860 C.2   288  TYR288      0.2264
     94  O         80.8830   28.2070   49.1380 O.2   288  TYR288     -0.2867
     95  CB        78.4470   26.8580   50.6650 C.3   288  TYR288      0.0534
     96  CG        77.7930   25.6500   51.2650 C.ar  288  TYR288     -0.0201
     97  CD1       78.5320   24.7750   52.0750 C.ar  288  TYR288     -0.0009
     98  CD2       76.4770   25.3090   50.9460 C.ar  288  TYR288     -0.0009
     99  CE1       77.9900   23.5950   52.5400 C.ar  288  TYR288      0.0417
    100  CE2       75.9040   24.1100   51.4140 C.ar  288  TYR288      0.0417
    101  CZ        76.6770   23.2580   52.2130 C.ar  288  TYR288      0.1957
    102  OH        76.1840   22.0690   52.7090 O.3   288  TYR288     -0.2866
    103  N         78.4720   31.6740   48.2050 N.3   290  TYR290     -0.1241
    104  CA        77.4690   32.6980   48.4830 C.3   290  TYR290      0.1605
    105  C         77.8430   33.9580   47.6750 C.2   290  TYR290      0.2264
    106  O         78.9960   34.3840   47.6590 O.2   290  TYR290     -0.2867
    107  CB        77.4590   33.0720   49.9740 C.3   290  TYR290      0.0534
    108  CG        76.9610   31.9800   50.8920 C.ar  290  TYR290     -0.0201
    109  CD1       75.6700   32.0120   51.4020 C.ar  290  TYR290     -0.0009
    110  CD2       77.8090   30.9250   51.2840 C.ar  290  TYR290     -0.0009
    111  CE1       75.2190   31.0240   52.2710 C.ar  290  TYR290      0.0417
    112  CE2       77.3650   29.9180   52.1950 C.ar  290  TYR290      0.0417
    113  CZ        76.0740   29.9890   52.6610 C.ar  290  TYR290      0.1957
    114  OH        75.6220   29.0370   53.5080 O.3   290  TYR290     -0.2866
    115  N         73.0360   31.7510   55.8260 N.3   305  LEU305     -0.1231
    116  CA        72.2630   30.6550   56.3000 C.3   305  LEU305      0.1693
    117  C         72.8590   29.3560   55.8610 C.2   305  LEU305      0.2592
    118  O         73.2330   29.1570   54.6820 O.2   305  LEU305     -0.2718
    119  CB        70.8030   30.7660   55.8080 C.3   305  LEU305      0.0284
    120  CG        70.1840   32.1080   56.1640 C.3   305  LEU305      0.0019
    121  CD1       68.8230   32.2560   55.4400 C.3   305  LEU305      0.0001
    122  CD2       70.0230   32.1760   57.6990 C.3   305  LEU305      0.0001
    123  N         72.9080   28.4610   56.8320 N.am  306  VAL306     -0.1966
    124  CA        73.4310   27.1370   56.6340 C.3   306  VAL306      0.1727
    125  C         72.3390   26.1670   57.0600 C.2   306  VAL306      0.2616
    126  O         71.5920   26.4080   58.0170 O.2   306  VAL306     -0.2715
    127  CB        74.6710   26.9280   57.4870 C.3   306  VAL306      0.0290
    128  CG1       75.1780   25.5100   57.3450 C.3   306  VAL306      0.0023
    129  CG2       75.7140   27.9130   57.0890 C.3   306  VAL306      0.0023
    130  N         72.2570   25.0630   56.3450 N.am  307  SER307     -0.1950
    131  CA        71.2660   24.0320   56.6210 C.3   307  SER307      0.1924
    132  C         71.8090   23.0430   57.6480 C.2   307  SER307      0.2314
    133  O         72.9150   22.5450   57.5020 O.2   307  SER307     -0.2863
    134  CB        70.9300   23.2980   55.3400 C.3   307  SER307      0.2116
    135  OG        69.8310   22.4620   55.5530 O.3   307  SER307     -0.2180
    136  N         66.7820   21.5250   55.5570 N.3   313  VAL313     -0.1231
    137  CA        66.0790   21.7440   54.2980 C.3   313  VAL313      0.1692
    138  C         66.9460   21.3390   53.1090 C.2   313  VAL313      0.2591
    139  O         66.4540   20.8960   52.1040 O.2   313  VAL313     -0.2718
    140  CB        65.6470   23.2340   54.1340 C.3   313  VAL313      0.0266
    141  CG1       66.8670   24.1330   54.0950 C.3   313  VAL313      0.0020
    142  CG2       64.8290   23.4100   52.8480 C.3   313  VAL313      0.0020
    143  N         68.2490   21.4520   53.2380 N.am  314  GLU314     -0.1979
    144  CA        69.0930   21.0990   52.1330 C.3   314  GLU314      0.1602
    145  C         69.0280   19.5960   51.7420 C.2   314  GLU314      0.2287
    146  O         69.2830   19.2530   50.5760 O.2   314  GLU314     -0.2864
    147  CB        70.5210   21.4960   52.4530 C.3   314  GLU314      0.0415
    148  CG        71.3350   21.8890   51.2390 C.3   314  GLU314      0.1163
    149  CD        72.8160   21.8410   51.5340 C.2   314  GLU314      0.3649
    150  OE1       73.1900   21.9420   52.7230 O.co2 314  GLU314     -0.2457
    151  OE2       73.6080   21.7080   50.5730 O.co2 314  GLU314     -0.2457
    152  N         70.3070   28.3870   45.0890 N.3   333  LEU333     -0.1245
    153  CA        69.2500   28.8910   45.9410 C.3   333  LEU333      0.1561
    154  C         69.2660   30.4160   45.8100 C.2   333  LEU333      0.2260
    155  O         70.2860   31.0660   45.9830 O.2   333  LEU333     -0.2867
    156  CB        69.5040   28.4270   47.3780 C.3   333  LEU333      0.0270
    157  CG        68.6880   29.1330   48.4720 C.3   333  LEU333      0.0019
    158  CD1       67.1210   28.8630   48.2950 C.3   333  LEU333      0.0001
    159  CD2       69.2060   28.6270   49.8390 C.3   333  LEU333      0.0001
    160  N         67.7410   33.9520   47.1540 N.3   335  ILE335     -0.1245
    161  CA        67.0830   34.5150   48.3230 C.3   335  ILE335      0.1561
    162  C         66.8370   36.0240   48.2230 C.2   335  ILE335      0.2260
    163  O         67.7020   36.7960   47.7560 O.2   335  ILE335     -0.2867
    164  CB        67.9490   34.2860   49.6190 C.3   335  ILE335      0.0252
    165  CG1       68.0870   32.7990   49.9150 C.3   335  ILE335      0.0019
    166  CG2       67.3160   34.9590   50.8180 C.3   335  ILE335      0.0019
    167  CD1       69.2060   32.5140   50.8840 C.3   335  ILE335      0.0001
    168  N         64.8490   38.9850   50.8090 N.3   337  TYR337     -0.1241
    169  CA        63.9540   39.2710   51.9130 C.3   337  TYR337      0.1605
    170  C         62.9350   40.3140   51.4280 C.2   337  TYR337      0.2264
    171  O         62.8840   41.4630   51.8980 O.2   337  TYR337     -0.2867
    172  CB        64.7510   39.7700   53.1240 C.3   337  TYR337      0.0534
    173  CG        65.7180   38.7060   53.6250 C.ar  337  TYR337     -0.0201
    174  CD1       65.2910   37.3950   53.8120 C.ar  337  TYR337     -0.0009
    175  CD2       67.0430   38.9990   53.8840 C.ar  337  TYR337     -0.0009
    176  CE1       66.1630   36.3770   54.2390 C.ar  337  TYR337      0.0417
    177  CE2       67.9380   37.9940   54.3240 C.ar  337  TYR337      0.0417
    178  CZ        67.4850   36.6850   54.4950 C.ar  337  TYR337      0.1957
    179  OH        68.3530   35.6940   54.9170 O.3   337  TYR337     -0.2866
    180  N         60.7050   33.6380   49.6660 N.3   374  ASN374     -0.1225
    181  CA        61.8940   34.4350   50.0030 C.3   374  ASN374      0.1785
    182  C         63.1090   33.6200   49.5990 C.2   374  ASN374      0.2597
    183  O         64.1950   34.1770   49.4460 O.2   374  ASN374     -0.2718
    184  CB        61.9820   34.7670   51.5210 C.3   374  ASN374      0.1169
    185  CG        61.0610   35.9340   51.9400 C.2   374  ASN374      0.2627
    186  OD1       59.8210   35.8530   51.8610 O.2   374  ASN374     -0.2716
    187  ND2       61.6700   37.0110   52.3970 N.am  374  ASN374     -0.0877
    188  N         62.8950   32.3100   49.4300 N.am  375  GLY375     -0.1957
    189  CA        63.9380   31.3990   49.0360 C.3   375  GLY375      0.1869
    190  C         63.4590   30.4940   47.9030 C.2   375  GLY375      0.2309
    191  O         62.5770   29.6480   48.0580 O.2   375  GLY375     -0.2863
    192  N         64.4460   27.5210   45.3100 N.3   377  TRP377     -0.1241
    193  CA        65.4290   26.4960   44.9490 C.3   377  TRP377      0.1605
    194  C         65.3480   26.1850   43.4270 C.2   377  TRP377      0.2264
    195  O         64.2500   25.9160   42.9120 O.2   377  TRP377     -0.2867
    196  CB        65.1700   25.2350   45.7550 C.3   377  TRP377      0.0550
    197  CG        65.4350   25.3770   47.2640 C.ar  377  TRP377      0.0003
    198  CD1       64.5740   25.8630   48.2260 C.ar  377  TRP377      0.0946
    199  CD2       66.6360   25.0130   47.9540 C.ar  377  TRP377      0.0152
    200  NE1       65.1760   25.8170   49.4580 N.ar  377  TRP377     -0.2442
    201  CE2       66.4360   25.2920   49.3170 C.ar  377  TRP377      0.0810
    202  CE3       67.8600   24.4700   47.5440 C.ar  377  TRP377      0.0012
    203  CZ2       67.4050   25.0530   50.2700 C.ar  377  TRP377      0.0191
    204  CZ3       68.8200   24.2360   48.4880 C.ar  377  TRP377      0.0001
    205  CH2       68.5830   24.5230   49.8450 C.ar  377  TRP377      0.0015
    206  N         57.9360   29.8160   53.3200 N.3   401  PHE401     -0.1227
    207  CA        58.6530   30.8800   52.5950 C.3   401  PHE401      0.1736
    208  C         59.5210   30.3860   51.4430 C.2   401  PHE401      0.2595
    209  O         60.3770   31.1030   50.9780 O.2   401  PHE401     -0.2718
    210  CB        59.5590   31.6940   53.5580 C.3   401  PHE401      0.0547
    211  CG        58.7930   32.4540   54.5930 C.ar  401  PHE401     -0.0202
    212  CD1       57.8630   33.4090   54.2120 C.ar  401  PHE401     -0.0042
    213  CD2       58.9320   32.1430   55.9350 C.ar  401  PHE401     -0.0042
    214  CE1       57.0530   34.0610   55.1600 C.ar  401  PHE401     -0.0003
    215  CE2       58.1440   32.7680   56.9040 C.ar  401  PHE401     -0.0003
    216  CZ        57.1930   33.7350   56.5220 C.ar  401  PHE401     -0.0000
    217  N         59.3050   29.1660   50.9810 N.am  402  MET402     -0.1979
    218  CA        60.1330   28.6290   49.9340 C.3   402  MET402      0.1605
    219  C         59.3700   28.0430   48.7950 C.2   402  MET402      0.2287
    220  O         58.1690   27.7830   48.8820 O.2   402  MET402     -0.2864
    221  CB        60.9570   27.5140   50.4950 C.3   402  MET402      0.0413
    222  CG        61.8250   27.9040   51.6150 C.3   402  MET402      0.0598
    223  SD        62.7670   26.4560   52.0480 S.3   402  MET402     -0.1393
    224  CE        62.9860   26.7210   53.8830 C.3   402  MET402      0.0692
    225  N         74.4710   29.8740   46.4110 N.3   442  ILE442     -0.1245
    226  CA        73.4080   30.6410   47.0410 C.3   442  ILE442      0.1561
    227  C         73.5920   32.0610   46.5270 C.2   442  ILE442      0.2260
    228  O         74.7000   32.6030   46.5530 O.2   442  ILE442     -0.2867
    229  CB        73.5520   30.6740   48.6130 C.3   442  ILE442      0.0252
    230  CG1       73.4810   29.2560   49.1950 C.3   442  ILE442      0.0019
    231  CG2       72.4710   31.5590   49.2220 C.3   442  ILE442      0.0019
    232  CD1       74.7880   28.5970   49.2690 C.3   442  ILE442      0.0001
@<TRIPOS>BOND
     1   195   194    2
     2   194   193    1
     3   193   192    1
     4   193   196    1
     5   152   153    1
     6   196   197    1
     7   154   153    1
     8   154   155    2
     9   153   156    1
    10   225   226    1
    11   227   228    2
    12   227   226    1
    13   226   229    1
    14   160   161    1
    15   197   199   ar
    16   197   198   ar
    17   156   157    1
    18   202   199   ar
    19   202   204   ar
    20   106   105    2
    21   105   104    1
    22   163   162    2
    23   190   191    2
    24   190   189    1
    25   199   201   ar
    26   103   104    1
    27   162   161    1
    28   198   200   ar
    29   158   157    1
    30   161   164    1
    31   157   159    1
    32   104   107    1
    33   204   205   ar
    34   229   230    1
    35   229   231    1
    36    93    94    2
    37    93    92    1
    38   219   220    2
    39   219   218    1
    40   189   188    1
    41   230   232    1
    42   201   200   ar
    43   201   203   ar
    44    92    91    1
    45    92    95    1
    46   188   182   am
    47   183   182    2
    48   182   181    1
    49   164   165    1
    50   164   166    1
    51   180   181    1
    52   205   203   ar
    53   165   167    1
    54   218   221    1
    55   218   217    1
    56   107   108    1
    57   181   184    1
    58   221   222    1
    59   151   149   ar
    60   146   145    2
    61    95    96    1
    62   168   169    1
    63   108   110   ar
    64   108   109   ar
    65    98    96   ar
    66    98   100   ar
    67   209   208    2
    68   217   208   am
    69   148   149    1
    70   148   147    1
    71    96    97   ar
    72   110   112   ar
    73   109   111   ar
    74   100   101   ar
    75   170   171    2
    76   170   169    1
    77   208   207    1
    78   184   185    1
    79   149   150   ar
    80   222   223    1
    81   145   144    1
    82   186   185    2
    83   169   172    1
    84   185   187   am
    85   223   224    1
    86    97    99   ar
    87   139   138    2
    88   144   147    1
    89   144   143    1
    90   112   113   ar
    91   101    99   ar
    92   101   102    1
    93   111   113   ar
    94   207   206    1
    95   207   210    1
    96   113   114    1
    97   142   140    1
    98   138   143   am
    99   138   137    1
   100   172   173    1
   101   210   211    1
   102    63    64    1
   103   173   174   ar
   104   173   175   ar
   105   174   176   ar
   106   175   177   ar
   107   141   140    1
   108   140   137    1
   109   212   211   ar
   110   212   214   ar
   111   176   178   ar
   112    75    74    1
   113    75    76    2
   114    77    78    1
   115    77    79    1
   116    77    74    1
   117   137   136    1
   118   177   178   ar
   119   178   179    1
   120    73    74    1
   121    73    65   am
   122   211   213   ar
   123   118   117    2
   124    64    65    1
   125    64    67    1
   126   214   216   ar
   127    65    66    2
   128    67    68    1
   129   134   135    1
   130   134   131    1
   131   121   120    1
   132   119   120    1
   133   119   116    1
   134   115   116    1
   135   117   116    1
   136   117   123   am
   137   213   215   ar
   138   120   122    1
   139   130   131    1
   140   130   125   am
   141   216   215   ar
   142   131   132    1
   143   124   123    1
   144   124   125    1
   145   124   127    1
   146    68    70   ar
   147    68    69   ar
   148    90    88   ar
   149    90    89   ar
   150    88    86   ar
   151    89    87   ar
   152   125   126    2
   153   129   127    1
   154    86    85   ar
   155   128   127    1
   156    87    85   ar
   157    70    72   ar
   158    29    28    2
   159   133   132    2
   160    85    84    1
   161    27    28    1
   162    27    26    1
   163    69    71   ar
   164    23    22    1
   165    23    24    1
   166    23    26    1
   167    84    81    1
   168    25    24    2
   169    28    30   am
   170    48    47   ar
   171    48    46   ar
   172    72    71   ar
   173    16    15    2
   174    47    45   ar
   175    17    14    1
   176    81    80    1
   177    81    82    1
   178    46    44   ar
   179    15    14    1
   180    15    18   am
   181    45    44   ar
   182    82    83    2
   183    19    18    1
   184    19    20    1
   185    14    13    1
   186     8     7    2
   187    44    43    1
   188    20    21    2
   189    54    53    1
   190     7    13   am
   191     7     6    1
   192    53    50    1
   193    43    40    1
   194    10    12    1
   195    10     9    1
   196    10    11    1
   197     6     9    1
   198     6     5    1
   199    49    50    1
   200    49    41   am
   201    50    51    1
   202     5     3   am
   203    40    41    1
   204    40    39    1
   205     3     4    2
   206     3     2    1
   207    41    42    2
   208     1     2    1
   209    51    55   am
   210    51    52    2
   211    55    56    1
   212    38    37    1
   213    34    33    2
   214    59    56    1
   215    59    60    1
   216    56    57    1
   217    36    37    1
   218    36    35    1
   219    33    32    1
   220    57    58    2
   221    62    61    1
   222    60    61    1
   223    32    35    1
   224    32    31    1
