@<TRIPOS>MOLECULE
tmp/2zyjA00.pdb
 196 184 0 0 0
SMALL
GASTEIGER

@<TRIPOS>ATOM
      1  N        -22.7060   -3.9070    5.2360 N.3    22  ILE22      -0.1231
      2  CA       -23.2770   -2.5390    5.2410 C.3    22  ILE22       0.1692
      3  C        -22.5090   -1.6210    6.2000 C.2    22  ILE22       0.2591
      4  O        -22.1400   -0.4860    5.8390 O.2    22  ILE22      -0.2718
      5  CB       -24.7750   -2.5550    5.6150 C.3    22  ILE22       0.0266
      6  CG1      -25.6150   -3.1200    4.4620 C.3    22  ILE22       0.0019
      7  CG2      -25.2380   -1.1370    5.8770 C.3    22  ILE22       0.0020
      8  CD1      -27.1080   -3.2900    4.7940 C.3    22  ILE22       0.0001
      9  N        -22.3400   -2.0660    7.4470 N.am   23  ARG23      -0.1980
     10  CA       -21.5760   -1.3230    8.4560 C.3    23  ARG23       0.1597
     11  C        -20.1130   -1.0630    8.0510 C.2    23  ARG23       0.2287
     12  O        -19.5910    0.0580    8.1830 O.2    23  ARG23      -0.2864
     13  CB       -21.6290   -2.0830    9.7710 C.3    23  ARG23       0.0334
     14  CG       -23.0380   -2.3050   10.3310 C.3    23  ARG23       0.0492
     15  CD       -23.3980   -1.2270   11.3090 C.3    23  ARG23       0.2205
     16  NE       -23.7520    0.0460   10.6840 N.pl3  23  ARG23      -0.0865
     17  CZ       -23.2440    1.2170   11.0340 C.cat  23  ARG23       0.5346
     18  NH1      -23.6790    2.3220   10.4360 N.pl3  23  ARG23       0.1354
     19  NH2      -22.2880    1.2910   11.9770 N.pl3  23  ARG23       0.1354
     20  N        -19.5890    1.6020    5.1190 N.3    26  LEU26      -0.1245
     21  CA       -19.6890    3.0130    5.5150 C.3    26  LEU26       0.1561
     22  C        -18.3160    3.6850    5.7020 C.2    26  LEU26       0.2260
     23  O        -18.1670    4.8810    5.4430 O.2    26  LEU26      -0.2867
     24  CB       -20.5770    3.1750    6.7720 C.3    26  LEU26       0.0270
     25  CG       -20.9620    4.6090    7.1820 C.3    26  LEU26       0.0019
     26  CD1      -21.6060    5.3570    6.0200 C.3    26  LEU26       0.0001
     27  CD2      -21.8980    4.5680    8.4040 C.3    26  LEU26       0.0001
     28  N        -25.0020    2.0340    1.8300 N.3    39  GLY39      -0.1210
     29  CA       -25.9260    2.0710    2.9820 C.3    39  GLY39       0.1956
     30  C        -27.1510    2.9530    2.7480 C.2    39  GLY39       0.2612
     31  O        -27.0640    3.9390    2.0040 O.2    39  GLY39      -0.2717
     32  N        -28.2750    2.6300    3.4090 N.am   40  GLY40      -0.1942
     33  CA       -29.4940    3.4580    3.3700 C.3    40  GLY40       0.2014
     34  C        -29.3940    4.7580    4.1610 C.2    40  GLY40       0.2638
     35  O        -30.1130    4.9440    5.1330 O.2    40  GLY40      -0.2714
     36  N        -28.4900    5.6480    3.7480 N.am   41  LEU41      -0.1977
     37  CA       -28.2200    6.8800    4.4800 C.3    41  LEU41       0.1596
     38  C        -29.1010    7.9650    3.9290 C.2    41  LEU41       0.2287
     39  O        -29.0210    8.2760    2.7410 O.2    41  LEU41      -0.2864
     40  CB       -26.7400    7.3010    4.4230 C.3    41  LEU41       0.0297
     41  CG       -25.8060    6.8290    5.5470 C.3    41  LEU41       0.0022
     42  CD1      -25.6250    5.3320    5.4660 C.3    41  LEU41       0.0001
     43  CD2      -24.4370    7.5250    5.4730 C.3    41  LEU41       0.0001
     44  N        -32.3590    2.7070   18.2510 N.3    99  GLY99      -0.1210
     45  CA       -32.4930    2.3240   16.8480 C.3    99  GLY99       0.1956
     46  C        -33.3400    1.0610   16.8170 C.2    99  GLY99       0.2613
     47  O        -33.4710    0.4050   17.8390 O.2    99  GLY99      -0.2717
     48  N        -34.0090    0.8080   15.6970 N.am  100  SER100     -0.1938
     49  CA       -34.7370   -0.4450   15.5360 C.3   100  SER100      0.2055
     50  C        -33.7750   -1.6300   15.4640 C.2   100  SER100      0.2642
     51  O        -34.2060   -2.7920   15.6690 O.2   100  SER100     -0.2714
     52  CB       -35.7290   -0.4000   14.3540 C.3   100  SER100      0.2130
     53  OG       -35.0160   -0.1380   13.1490 O.3   100  SER100     -0.2179
     54  N        -32.4940   -1.3780   15.1630 N.am  101  GLN101     -0.1976
     55  CA       -31.4920   -2.4350   15.2730 C.3   101  GLN101      0.1601
     56  C        -31.5010   -3.0530   16.6730 C.2   101  GLN101      0.2287
     57  O        -31.4820   -4.2990   16.8140 O.2   101  GLN101     -0.2864
     58  CB       -30.0750   -2.0070   14.8940 C.3   101  GLN101      0.0394
     59  CG       -29.0710   -3.1720   14.8880 C.3   101  GLN101      0.0908
     60  CD       -29.3970   -4.2530   13.8920 C.2   101  GLN101      0.2608
     61  OE1      -29.1960   -5.4800   14.1580 O.2   101  GLN101     -0.2717
     62  NE2      -29.8580   -3.8440   12.7140 N.am  101  GLN101     -0.0878
     63  N        -34.4120   -5.4240   17.0770 N.3   104  LEU104     -0.1245
     64  CA       -34.0710   -6.7430   16.4580 C.3   104  LEU104      0.1561
     65  C        -33.2480   -7.5970   17.3840 C.2   104  LEU104      0.2260
     66  O        -33.4970   -8.8240   17.4940 O.2   104  LEU104     -0.2867
     67  CB       -33.3170   -6.5270   15.1440 C.3   104  LEU104      0.0270
     68  CG       -34.1440   -5.7430   14.0940 C.3   104  LEU104      0.0019
     69  CD1      -33.2700   -5.3960   12.8800 C.3   104  LEU104      0.0001
     70  CD2      -35.4260   -6.5070   13.6820 C.3   104  LEU104      0.0001
     71  N        -33.3380   -8.2400    5.5090 N.3   125  TYR125     -0.1241
     72  CA       -32.4310   -7.1870    6.0050 C.3   125  TYR125      0.1605
     73  C        -31.2230   -7.8350    6.7290 C.2   125  TYR125      0.2264
     74  O        -31.4150   -8.5500    7.7010 O.2   125  TYR125     -0.2867
     75  CB       -33.2010   -6.2070    6.9080 C.3   125  TYR125      0.0534
     76  CG       -32.2910   -5.3280    7.7360 C.ar  125  TYR125     -0.0201
     77  CD1      -31.2150   -4.6020    7.1340 C.ar  125  TYR125     -0.0009
     78  CD2      -32.4800   -5.2100    9.1150 C.ar  125  TYR125     -0.0009
     79  CE1      -30.3690   -3.8350    7.9060 C.ar  125  TYR125      0.0417
     80  CE2      -31.6430   -4.4210    9.8810 C.ar  125  TYR125      0.0417
     81  CZ       -30.5920   -3.7340    9.2750 C.ar  125  TYR125      0.1957
     82  OH       -29.7770   -2.9550   10.0690 O.3   125  TYR125     -0.2866
     83  N        -40.2650  -12.7210   10.5710 N.3   167  TYR167     -0.1241
     84  CA       -39.7240  -11.3370   10.4580 C.3   167  TYR167      0.1605
     85  C        -40.0710  -10.8290    9.0490 C.2   167  TYR167      0.2264
     86  O        -39.6510  -11.4230    8.0290 O.2   167  TYR167     -0.2867
     87  CB       -38.2050  -11.3240   10.6750 C.3   167  TYR167      0.0534
     88  CG       -37.5930   -9.9770   10.3650 C.ar  167  TYR167     -0.0201
     89  CD1      -37.8080   -8.9240   11.2050 C.ar  167  TYR167     -0.0009
     90  CD2      -36.8050   -9.7980    9.2130 C.ar  167  TYR167     -0.0009
     91  CE1      -37.2410   -7.6740   10.9300 C.ar  167  TYR167      0.0417
     92  CE2      -36.2430   -8.5500    8.9250 C.ar  167  TYR167      0.0417
     93  CZ       -36.4650   -7.5160    9.7790 C.ar  167  TYR167      0.1957
     94  OH       -35.8960   -6.2820    9.4910 O.3   167  TYR167     -0.2866
     95  N        -40.9490   -7.1980    6.3990 N.3   169  ILE169     -0.1245
     96  CA       -40.8290   -5.7790    6.1100 C.3   169  ILE169      0.1561
     97  C        -41.8110   -5.4830    4.9470 C.2   169  ILE169      0.2260
     98  O        -41.4000   -5.3640    3.8030 O.2   169  ILE169     -0.2867
     99  CB       -39.3690   -5.3820    5.7310 C.3   169  ILE169      0.0252
    100  CG1      -38.3050   -5.9550    6.6760 C.3   169  ILE169      0.0019
    101  CG2      -39.2670   -3.7930    5.6830 C.3   169  ILE169      0.0019
    102  CD1      -36.9130   -5.9330    6.0660 C.3   169  ILE169      0.0001
    103  N        -36.3650   -4.0800    2.7500 N.3   174  ASN174     -0.1240
    104  CA       -34.9220   -4.0680    2.5880 C.3   174  ASN174      0.1653
    105  C        -34.5330   -5.5420    2.3630 C.2   174  ASN174      0.2266
    106  O        -34.6780   -6.3180    3.2940 O.2   174  ASN174     -0.2867
    107  CB       -34.2640   -3.5280    3.8510 C.3   174  ASN174      0.1155
    108  CG       -32.7670   -3.3840    3.7170 C.2   174  ASN174      0.2627
    109  OD1      -32.1650   -3.6670    2.6630 O.2   174  ASN174     -0.2716
    110  ND2      -32.1470   -2.9450    4.7780 N.am  174  ASN174     -0.0877
    111  N        -41.2630   -5.0250   10.7140 N.3   202  ASP202     -0.1239
    112  CA       -40.2530   -3.9830   10.7090 C.3   202  ASP202      0.1674
    113  C        -40.7680   -2.9240    9.7410 C.2   202  ASP202      0.2266
    114  O        -40.7680   -3.1260    8.5240 O.2   202  ASP202     -0.2867
    115  CB       -38.8690   -4.5660   10.3100 C.3   202  ASP202      0.1410
    116  CG       -37.7490   -3.5570   10.4180 C.2   202  ASP202      0.3668
    117  OD1      -38.0440   -2.3330   10.4050 O.co2 202  ASP202     -0.2456
    118  OD2      -36.5750   -3.9720   10.5120 O.co2 202  ASP202     -0.2456
    119  N        -39.4860    0.3310    9.1920 N.3   204  ALA204     -0.1231
    120  CA       -38.4690    1.3910    9.0770 C.3   204  ALA204      0.1694
    121  C        -38.8370    2.3980    7.9910 C.2   204  ALA204      0.2592
    122  O        -38.6270    3.6060    8.1620 O.2   204  ALA204     -0.2718
    123  CB       -37.0570    0.8000    8.8090 C.3   204  ALA204      0.0304
    124  N        -39.3910    1.8950    6.8880 N.am  205  TYR205     -0.1976
    125  CA       -39.6900    2.7240    5.7120 C.3   205  TYR205      0.1639
    126  C        -41.1640    3.1660    5.5630 C.2   205  TYR205      0.2290
    127  O        -41.5550    3.6470    4.4900 O.2   205  TYR205     -0.2864
    128  CB       -39.1750    2.0290    4.4220 C.3   205  TYR205      0.0560
    129  CG       -37.7180    1.6710    4.5350 C.ar  205  TYR205     -0.0198
    130  CD1      -36.7140    2.6420    4.3720 C.ar  205  TYR205     -0.0009
    131  CD2      -37.3300    0.3700    4.8660 C.ar  205  TYR205     -0.0009
    132  CE1      -35.3700    2.3250    4.5560 C.ar  205  TYR205      0.0417
    133  CE2      -35.9550    0.0420    5.0580 C.ar  205  TYR205      0.0417
    134  CZ       -34.9990    1.0010    4.8910 C.ar  205  TYR205      0.1957
    135  OH       -33.6710    0.7150    5.0730 O.3   205  TYR205     -0.2866
    136  N        -38.9690    3.4260   13.4360 N.3   235  SER235     -0.1217
    137  CA       -37.7250    4.1360   13.6750 C.3   235  SER235      0.1889
    138  C        -37.8680    5.6010   13.2780 C.2   235  SER235      0.2288
    139  O        -38.6120    5.9480   12.3710 O.2   235  SER235     -0.2866
    140  CB       -36.5710    3.4700   12.9230 C.3   235  SER235      0.2089
    141  OG       -35.3320    4.0790   13.2220 O.3   235  SER235     -0.2183
    142  N        -35.1340    6.8940   12.2480 N.3   237  SER237     -0.1202
    143  CA       -33.8870    6.9910   11.4730 C.3   237  SER237      0.2020
    144  C        -34.1110    7.4710   10.0350 C.2   237  SER237      0.2618
    145  O        -33.3740    8.3460    9.5650 O.2   237  SER237     -0.2717
    146  CB       -33.1350    5.6360   11.4780 C.3   237  SER237      0.2103
    147  OG       -32.5580    5.3960   12.7510 O.3   237  SER237     -0.2182
    148  N        -35.1590    6.9750    9.3670 N.am  238  LYS238     -0.1979
    149  CA       -35.3390    7.2910    7.9310 C.3   238  LYS238      0.1596
    150  C        -36.1560    8.5660    7.7300 C.2   238  LYS238      0.2287
    151  O        -36.2510    9.0930    6.6190 O.2   238  LYS238     -0.2864
    152  CB       -36.0080    6.1400    7.1900 C.3   238  LYS238      0.0298
    153  CG       -35.4530    4.7340    7.4810 C.3   238  LYS238      0.0038
    154  CD       -33.9430    4.6310    7.2300 C.3   238  LYS238      0.0206
    155  CE       -33.5220    3.1640    7.4230 C.3   238  LYS238      0.1093
    156  NZ       -32.0790    3.0910    7.3100 N.3   238  LYS238     -0.1314
    157  N        -30.8080    9.3190   11.4870 N.2   242  PRO242     -0.2584
    158  CA       -30.3730    7.9630   11.8440 C.3   242  PRO242      0.1895
    159  C        -29.3230    7.9810   12.9730 C.2   242  PRO242      0.2359
    160  O        -29.3420    7.1040   13.8450 O.2   242  PRO242     -0.2858
    161  CB       -29.7490    7.4260   10.5620 C.2   242  PRO242      0.0071
    162  CG       -29.7920    8.4510    9.5900 C.2   242  PRO242      0.0180
    163  CD       -30.3510    9.7250   10.1470 C.2   242  PRO242      0.0937
    164  N        -30.0650    7.6180   16.8730 N.3   245  ARG245     -0.1245
    165  CA       -30.3750    6.2360   17.3670 C.3   245  ARG245      0.1563
    166  C        -31.6350    6.2050   18.2760 C.2   245  ARG245      0.2260
    167  O        -31.5690    5.8910   19.4800 O.2   245  ARG245     -0.2867
    168  CB       -29.1770    5.5720   18.1140 C.3   245  ARG245      0.0307
    169  CG       -27.7830    5.7200   17.5240 C.3   245  ARG245      0.0489
    170  CD       -27.6920    5.2940   16.0750 C.3   245  ARG245      0.2205
    171  NE       -28.0500    3.8380   15.9570 N.pl3 245  ARG245     -0.0865
    172  CZ       -29.0460    3.3670   15.2210 C.cat 245  ARG245      0.5346
    173  NH1      -29.7810    4.1510   14.4510 N.pl3 245  ARG245      0.1354
    174  NH2      -29.2610    2.0400   15.1810 N.pl3 245  ARG245      0.1354
    175  N        -34.4050    1.7470   -1.8880 N.3   326  PHE326     -0.1241
    176  CA       -33.5940    0.7630   -2.6020 C.3   326  PHE326      0.1605
    177  C        -34.1540    0.2750   -3.9330 C.2   326  PHE326      0.2264
    178  O        -35.3660    0.1310   -4.1010 O.2   326  PHE326     -0.2867
    179  CB       -33.3670   -0.4870   -1.7420 C.3   326  PHE326      0.0534
    180  CG       -32.8450   -0.1720   -0.3660 C.ar  326  PHE326     -0.0203
    181  CD1      -31.6030    0.4710   -0.2130 C.ar  326  PHE326     -0.0042
    182  CD2      -33.6280   -0.4470    0.7660 C.ar  326  PHE326     -0.0042
    183  CE1      -31.1050    0.7670    1.0920 C.ar  326  PHE326     -0.0003
    184  CE2      -33.1660   -0.1510    2.0550 C.ar  326  PHE326     -0.0003
    185  CZ       -31.8940    0.4930    2.2060 C.ar  326  PHE326     -0.0000
    186  N        -27.8190   -4.6640   -3.8990 N.3   368  ARG368     -0.1245
    187  CA       -28.7240   -3.6090   -3.5320 C.3   368  ARG368      0.1563
    188  C        -28.1050   -2.2530   -3.8470 C.2   368  ARG368      0.2260
    189  O        -26.9250   -2.0370   -3.5560 O.2   368  ARG368     -0.2867
    190  CB       -28.9960   -3.6790   -2.0370 C.3   368  ARG368      0.0307
    191  CG       -30.1290   -2.7850   -1.5720 C.3   368  ARG368      0.0489
    192  CD       -30.1520   -2.7850   -0.0280 C.3   368  ARG368      0.2205
    193  NE       -29.0800   -1.9700    0.5340 N.pl3 368  ARG368     -0.0865
    194  CZ       -28.9140   -1.7460    1.8460 C.cat 368  ARG368      0.5346
    195  NH1      -29.7300   -2.3030    2.7310 N.pl3 368  ARG368      0.1354
    196  NH2      -27.9390   -0.9500    2.2700 N.pl3 368  ARG368      0.1354
@<TRIPOS>BOND
     1   178   177    2
     2   177   176    1
     3   186   187    1
     4   188   189    2
     5   188   187    1
     6   187   190    1
     7   176   175    1
     8   176   179    1
     9   190   191    1
    10   179   180    1
    11   191   192    1
    12   180   181   ar
    13   180   182   ar
    14   181   183   ar
    15   192   193    1
    16   193   194    2
    17   182   184   ar
    18   183   185   ar
    19    28    29    1
    20   194   196    1
    21   194   195    1
    22    31    30    2
    23   184   185   ar
    24   105   104    1
    25   105   106    2
    26   104   103    1
    27   104   107    1
    28   109   108    2
    29    39    38    2
    30    30    29    1
    31    30    32   am
    32    33    32    1
    33    33    34    1
    34   108   107    1
    35   108   110   am
    36    36    34   am
    37    36    37    1
    38    98    97    2
    39    38    37    1
    40    34    35    2
    41   130   129   ar
    42   130   132   ar
    43   128   129    1
    44   128   125    1
    45    40    37    1
    46    40    41    1
    47     6     8    1
    48     6     5    1
    49   127   126    2
    50   129   131   ar
    51   132   134   ar
    52   131   133   ar
    53   134   133   ar
    54   134   135    1
    55    97    96    1
    56    20    21    1
    57     1     2    1
    58     2     5    1
    59     2     3    1
    60    23    22    2
    61    42    41    1
    62    43    41    1
    63    71    72    1
    64    21    22    1
    65    21    24    1
    66   126   125    1
    67     5     7    1
    68   101    99    1
    69   125   124    1
    70    99    96    1
    71    99   100    1
    72     4     3    2
    73    72    73    1
    74    72    75    1
    75    26    25    1
    76   102   100    1
    77    96    95    1
    78     3     9   am
    79   151   150    2
    80    73    74    2
    81    24    25    1
    82   124   121   am
    83    75    76    1
    84    77    76   ar
    85    77    79   ar
    86    25    27    1
    87   152   153    1
    88   152   149    1
    89   154   155    1
    90   154   153    1
    91   156   155    1
    92     9    10    1
    93   150   149    1
    94    76    78   ar
    95    79    81   ar
    96   149   148    1
    97   121   122    2
    98   121   120    1
    99    86    85    2
   100    11    12    2
   101    11    10    1
   102    10    13    1
   103   114   113    2
   104   123   120    1
   105    92    90   ar
   106    92    93   ar
   107    85    84    1
   108   120   119    1
   109    78    80   ar
   110    90    88   ar
   111    81    80   ar
   112    81    82    1
   113   148   144   am
   114    94    93    1
   115   145   144    2
   116   162   163    1
   117   162   161    2
   118   113   112    1
   119    13    14    1
   120    93    91   ar
   121   144   143    1
   122   163   157    2
   123   115   116    1
   124   115   112    1
   125    14    15    1
   126    88    87    1
   127    88    89   ar
   128   117   116   ar
   129   116   118   ar
   130    18    17    1
   131    84    83    1
   132    84    87    1
   133   161   158    1
   134    16    17    2
   135    16    15    1
   136   112   111    1
   137    91    89   ar
   138    17    19    1
   139   143   146    1
   140   143   142    1
   141   146   147    1
   142   157   158    1
   143   158   159    1
   144   139   138    2
   145    62    60   am
   146    69    68    1
   147   140   141    1
   148   140   137    1
   149   159   160    2
   150    53    52    1
   151   138   137    1
   152   136   137    1
   153    70    68    1
   154    60    61    2
   155    60    59    1
   156    68    67    1
   157    52    49    1
   158   173   172    1
   159    59    58    1
   160    58    55    1
   161    67    64    1
   162    54    55    1
   163    54    50   am
   164   174   172    1
   165   172   171    2
   166    55    56    1
   167    50    49    1
   168    50    51    2
   169    49    48    1
   170    48    46   am
   171   171   170    1
   172   170   169    1
   173    64    63    1
   174    64    65    1
   175    56    57    2
   176    46    45    1
   177    46    47    2
   178    45    44    1
   179   164   165    1
   180   165   168    1
   181   165   166    1
   182    65    66    2
   183   169   168    1
   184   166   167    2
