@<TRIPOS>MOLECULE
tmp/2zykC00.pdb
 236 226 0 0 0
SMALL
GASTEIGER

@<TRIPOS>ATOM
      1  N         32.7130  -51.1170   21.8680 N.3    10  ASN10      -0.1225
      2  CA        32.2390  -50.7590   20.5480 C.3    10  ASN10       0.1785
      3  C         33.3600  -50.4690   19.5560 C.2    10  ASN10       0.2597
      4  O         34.2400  -49.6610   19.8360 O.2    10  ASN10      -0.2718
      5  CB        31.3670  -49.5190   20.6920 C.3    10  ASN10       0.1169
      6  CG        30.2080  -49.5050   19.7310 C.2    10  ASN10       0.2627
      7  OD1       30.2560  -50.1180   18.6630 O.2    10  ASN10      -0.2716
      8  ND2       29.1450  -48.8040   20.1140 N.am   10  ASN10      -0.0877
      9  N         33.3190  -51.1250   18.3980 N.am   11  ALA11      -0.1966
     10  CA        34.4070  -51.0320   17.4240 C.3    11  ALA11       0.1728
     11  C         34.2680  -49.8290   16.5030 C.2    11  ALA11       0.2616
     12  O         34.1360  -49.9800   15.2880 O.2    11  ALA11      -0.2715
     13  CB        34.5070  -52.3060   16.6090 C.3    11  ALA11       0.0334
     14  N         34.3270  -48.6330   17.0770 N.am   12  ASP12      -0.1971
     15  CA        34.1240  -47.4240   16.2890 C.3    12  ASP12       0.1709
     16  C         35.4220  -46.8980   15.6670 C.2    12  ASP12       0.2293
     17  O         35.4120  -45.8730   14.9720 O.2    12  ASP12      -0.2864
     18  CB        33.3770  -46.3490   17.0980 C.3    12  ASP12       0.1436
     19  CG        34.2440  -45.6840   18.1800 C.2    12  ASP12       0.3671
     20  OD1       35.1730  -46.3180   18.7330 O.co2  12  ASP12      -0.2456
     21  OD2       33.9690  -44.5050   18.4950 O.co2  12  ASP12      -0.2456
     22  N         34.8430  -43.8650   21.0800 N.3    16  GLN16      -0.1245
     23  CA        34.2690  -44.7540   22.0950 C.3    16  GLN16       0.1566
     24  C         35.2990  -45.7650   22.5630 C.2    16  GLN16       0.2260
     25  O         35.4670  -45.9670   23.7620 O.2    16  GLN16      -0.2867
     26  CB        33.0020  -45.4520   21.5800 C.3    16  GLN16       0.0367
     27  CG        31.8660  -44.4670   21.2930 C.3    16  GLN16       0.0905
     28  CD        30.5900  -45.1230   20.8010 C.2    16  GLN16       0.2608
     29  OE1       30.4460  -46.3500   20.8180 O.2    16  GLN16      -0.2717
     30  NE2       29.6390  -44.2940   20.3670 N.am   16  GLN16      -0.0878
     31  N         31.8650  -54.8590   17.5330 N.3    41  ALA41      -0.1231
     32  CA        30.5760  -54.2150   17.2820 C.3    41  ALA41       0.1694
     33  C         29.6700  -54.3610   18.5140 C.2    41  ALA41       0.2592
     34  O         29.4690  -55.4780   19.0160 O.2    41  ALA41      -0.2718
     35  CB        29.9180  -54.7950   16.0520 C.3    41  ALA41       0.0304
     36  N         29.1570  -53.2250   19.0030 N.am   42  LEU42      -0.1966
     37  CA        28.2600  -53.1820   20.1670 C.3    42  LEU42       0.1728
     38  C         27.1160  -54.1910   20.0670 C.2    42  LEU42       0.2616
     39  O         26.8420  -54.9220   21.0190 O.2    42  LEU42      -0.2715
     40  CB        27.6970  -51.7710   20.3540 C.3    42  LEU42       0.0311
     41  CG        26.5780  -51.5260   21.3690 C.3    42  LEU42       0.0022
     42  CD1       27.1370  -51.0100   22.6930 C.3    42  LEU42       0.0001
     43  CD2       25.5810  -50.5320   20.8070 C.3    42  LEU42       0.0001
     44  N         26.4690  -54.2370   18.9020 N.am   43  LEU43      -0.1963
     45  CA        25.2990  -55.0850   18.7060 C.3    43  LEU43       0.1728
     46  C         25.6490  -56.4920   18.2360 C.2    43  LEU43       0.2616
     47  O         24.7640  -57.2710   17.8890 O.2    43  LEU43      -0.2715
     48  CB        24.2880  -54.4160   17.7630 C.3    43  LEU43       0.0311
     49  CG        23.6390  -53.1340   18.2930 C.3    43  LEU43       0.0022
     50  CD1       23.0630  -52.2920   17.1570 C.3    43  LEU43       0.0001
     51  CD2       22.5860  -53.4220   19.3640 C.3    43  LEU43       0.0001
     52  N         26.9370  -56.8210   18.2370 N.am   44  LYS44      -0.1977
     53  CA        27.3620  -58.1830   17.9240 C.3    44  LYS44       0.1596
     54  C         27.9820  -58.9050   19.1170 C.2    44  LYS44       0.2287
     55  O         28.3000  -60.0920   19.0290 O.2    44  LYS44      -0.2864
     56  CB        28.2880  -58.2130   16.6970 C.3    44  LYS44       0.0298
     57  CG        27.5310  -58.3390   15.3670 C.3    44  LYS44       0.0038
     58  CD        28.3710  -59.0180   14.2770 C.3    44  LYS44       0.0206
     59  CE        28.4750  -60.5530   14.4650 C.3    44  LYS44       0.1093
     60  NZ        29.3600  -61.2100   13.4430 N.3    44  LYS44      -0.1314
     61  N         22.9770  -52.2890   24.6570 N.3    65  PRO65      -0.2116
     62  CA        21.7270  -51.6780   25.1110 C.3    65  PRO65       0.1372
     63  C         20.8440  -52.6620   25.8720 C.2    65  PRO65       0.2244
     64  O         20.8640  -53.8460   25.5860 O.2    65  PRO65      -0.2868
     65  CB        21.0480  -51.2370   23.8070 C.3    65  PRO65       0.0268
     66  CG        22.1540  -51.0470   22.8470 C.3    65  PRO65       0.0207
     67  CD        23.1710  -52.1020   23.2040 C.3    65  PRO65       0.0892
     68  N         17.7910  -53.5310   26.1480 N.3    67  ASP67      -0.1225
     69  CA        16.6060  -54.2110   25.6270 C.3    67  ASP67       0.1805
     70  C         16.8070  -55.7270   25.6200 C.2    67  ASP67       0.2597
     71  O         15.8530  -56.4750   25.8170 O.2    67  ASP67      -0.2718
     72  CB        16.2610  -53.7130   24.2210 C.3    67  ASP67       0.1424
     73  CG        17.4030  -53.8780   23.2590 C.2    67  ASP67       0.3668
     74  OD1       18.4860  -53.3070   23.5160 O.co2  67  ASP67      -0.2456
     75  OD2       17.2250  -54.5830   22.2500 O.co2  67  ASP67      -0.2456
     76  N         18.0520  -56.1630   25.4260 N.am   68  ARG68      -0.1979
     77  CA        18.3690  -57.5890   25.3100 C.3    68  ARG68       0.1597
     78  C         18.9660  -58.1940   26.5830 C.2    68  ARG68       0.2287
     79  O         19.4690  -59.3270   26.5720 O.2    68  ARG68      -0.2864
     80  CB        19.2590  -57.8510   24.1000 C.3    68  ARG68       0.0334
     81  CG        18.5780  -57.5520   22.7680 C.3    68  ARG68       0.0492
     82  CD        19.4450  -57.9740   21.6030 C.3    68  ARG68       0.2205
     83  NE        19.6640  -59.4180   21.6200 N.pl3  68  ARG68      -0.0865
     84  CZ        20.6840  -60.0250   21.0370 C.cat  68  ARG68       0.5346
     85  NH1       21.6020  -59.3160   20.3880 N.pl3  68  ARG68       0.1354
     86  NH2       20.7920  -61.3410   21.1110 N.pl3  68  ARG68       0.1354
     87  N         19.7800  -42.6130   26.5810 N.3   113  GLU113     -0.1245
     88  CA        19.6180  -42.1250   25.2130 C.3   113  GLU113      0.1567
     89  C         18.2250  -42.2960   24.6220 C.2   113  GLU113      0.2260
     90  O         17.5320  -43.2760   24.8570 O.2   113  GLU113     -0.2867
     91  CB        20.6190  -42.8280   24.2920 C.3   113  GLU113      0.0388
     92  CG        20.3300  -44.3320   24.1010 C.3   113  GLU113      0.1160
     93  CD        21.4180  -45.0560   23.3490 C.2   113  GLU113      0.3649
     94  OE1       22.4970  -44.4860   23.1480 O.co2 113  GLU113     -0.2457
     95  OE2       21.2000  -46.2100   22.9670 O.co2 113  GLU113     -0.2457
     96  N         15.9870  -43.4960    9.6100 N.3   154  GLU154     -0.1245
     97  CA        15.9720  -44.9210    9.3450 C.3   154  GLU154      0.1567
     98  C         14.5470  -45.4680    9.4830 C.2   154  GLU154      0.2260
     99  O         14.2110  -46.1120   10.4840 O.2   154  GLU154     -0.2867
    100  CB        16.9250  -45.5990   10.3180 C.3   154  GLU154      0.0388
    101  CG        17.7770  -46.6700    9.7070 C.3   154  GLU154      0.1160
    102  CD        18.8670  -47.1550   10.6380 C.2   154  GLU154      0.3649
    103  OE1       19.6330  -46.3230   11.1760 O.co2 154  GLU154     -0.2457
    104  OE2       18.9700  -48.3850   10.8060 O.co2 154  GLU154     -0.2457
    105  N         13.4310  -49.0930   10.4150 N.3   157  ASN157     -0.1240
    106  CA        13.9770  -49.5720   11.6920 C.3   157  ASN157      0.1653
    107  C         12.9910  -49.2950   12.8140 C.2   157  ASN157      0.2266
    108  O         12.7650  -48.1390   13.1830 O.2   157  ASN157     -0.2867
    109  CB        15.3470  -48.9190   11.9890 C.3   157  ASN157      0.1155
    110  CG        16.1650  -49.6650   13.0640 C.2   157  ASN157      0.2627
    111  OD1       15.6360  -50.0840   14.0960 O.2   157  ASN157     -0.2716
    112  ND2       17.4690  -49.8110   12.8210 N.am  157  ASN157     -0.0877
    113  N         13.1620  -49.3360   15.8370 N.3   159  TYR159     -0.1227
    114  CA        13.7350  -48.5640   16.9390 C.3   159  TYR159      0.1736
    115  C         13.4960  -47.0780   16.7250 C.2   159  TYR159      0.2595
    116  O         13.1540  -46.3610   17.6560 O.2   159  TYR159     -0.2718
    117  CB        15.2410  -48.8490   17.0960 C.3   159  TYR159      0.0548
    118  CG        15.9130  -47.9580   18.1210 C.ar  159  TYR159     -0.0200
    119  CD1       15.8340  -48.2490   19.4880 C.ar  159  TYR159     -0.0009
    120  CD2       16.6150  -46.8100   17.7230 C.ar  159  TYR159     -0.0009
    121  CE1       16.4330  -47.4220   20.4310 C.ar  159  TYR159      0.0417
    122  CE2       17.2200  -45.9730   18.6610 C.ar  159  TYR159      0.0417
    123  CZ        17.1220  -46.2840   20.0080 C.ar  159  TYR159      0.1957
    124  OH        17.7200  -45.4750   20.9300 O.3   159  TYR159     -0.2866
    125  N         13.6770  -46.6390   15.4820 N.am  160  TYR160     -0.1976
    126  CA        13.4560  -45.2570   15.0810 C.3   160  TYR160      0.1639
    127  C         11.9590  -44.9270   14.8810 C.2   160  TYR160      0.2290
    128  O         11.4810  -43.8810   15.3400 O.2   160  TYR160     -0.2864
    129  CB        14.2730  -44.9600   13.8290 C.3   160  TYR160      0.0560
    130  CG        15.7750  -44.9370   14.0770 C.ar  160  TYR160     -0.0198
    131  CD1       16.5270  -46.1170   14.0950 C.ar  160  TYR160     -0.0009
    132  CD2       16.4480  -43.7290   14.3110 C.ar  160  TYR160     -0.0009
    133  CE1       17.9020  -46.0960   14.3380 C.ar  160  TYR160      0.0417
    134  CE2       17.8170  -43.7000   14.5440 C.ar  160  TYR160      0.0417
    135  CZ        18.5370  -44.8810   14.5530 C.ar  160  TYR160      0.1957
    136  OH        19.8910  -44.8360   14.7860 O.3   160  TYR160     -0.2866
    137  N         20.1560  -47.6410    5.7400 N.3   213  LYS213     -0.1231
    138  CA        20.9420  -47.9760    6.9320 C.3   213  LYS213      0.1693
    139  C         21.5220  -46.7010    7.5590 C.2   213  LYS213      0.2592
    140  O         21.3960  -45.6130    6.9960 O.2   213  LYS213     -0.2718
    141  CB        22.0420  -49.0030    6.6130 C.3   213  LYS213      0.0285
    142  CG        23.0480  -48.5780    5.5590 C.3   213  LYS213      0.0035
    143  CD        24.1170  -49.6450    5.3650 C.3   213  LYS213      0.0206
    144  CE        25.0760  -49.2730    4.2430 C.3   213  LYS213      0.1093
    145  NZ        26.4330  -49.8610    4.4640 N.3   213  LYS213     -0.1314
    146  N         22.1490  -46.8440    8.7220 N.am  214  ALA214     -0.1966
    147  CA        22.7140  -45.7140    9.4570 C.3   214  ALA214      0.1728
    148  C         23.6710  -44.8440    8.6240 C.2   214  ALA214      0.2616
    149  O         23.4990  -43.6260    8.5580 O.2   214  ALA214     -0.2715
    150  CB        23.3860  -46.1990   10.7400 C.3   214  ALA214      0.0334
    151  N         24.6590  -45.4670    7.9840 N.am  215  ASP215     -0.1971
    152  CA        25.6460  -44.7400    7.1720 C.3   215  ASP215      0.1709
    153  C         25.0220  -43.8320    6.1050 C.2   215  ASP215      0.2293
    154  O         25.5210  -42.7340    5.8460 O.2   215  ASP215     -0.2864
    155  CB        26.6260  -45.7110    6.5100 C.3   215  ASP215      0.1436
    156  CG        27.6830  -46.2270    7.4730 C.2   215  ASP215      0.3671
    157  OD1       27.3270  -46.7740    8.5380 O.co2 215  ASP215     -0.2456
    158  OD2       28.8810  -46.1050    7.1490 O.co2 215  ASP215     -0.2456
    159  N         23.6390  -40.8340    8.0270 N.3   218  ASN218     -0.1240
    160  CA        24.7780  -40.0680    8.5250 C.3   218  ASN218      0.1653
    161  C         25.6340  -39.4380    7.4150 C.2   218  ASN218      0.2266
    162  O         25.9950  -38.2620    7.4950 O.2   218  ASN218     -0.2867
    163  CB        25.6330  -40.9190    9.4750 C.3   218  ASN218      0.1155
    164  CG        24.8450  -41.4430   10.6780 C.2   218  ASN218      0.2627
    165  OD1       23.8900  -40.8230   11.1560 O.2   218  ASN218     -0.2716
    166  ND2       25.2540  -42.5990   11.1680 N.am  218  ASN218     -0.0877
    167  N         17.6550  -38.9300   15.0370 N.3   231  ASN231     -0.1240
    168  CA        18.8240  -39.6740   15.4670 C.3   231  ASN231      0.1653
    169  C         19.2140  -39.3500   16.9080 C.2   231  ASN231      0.2266
    170  O         18.5690  -38.5350   17.5700 O.2   231  ASN231     -0.2867
    171  CB        19.9840  -39.4120   14.5100 C.3   231  ASN231      0.1155
    172  CG        20.8060  -40.6560   14.2340 C.2   231  ASN231      0.2627
    173  OD1       20.7060  -41.6610   14.9410 O.2   231  ASN231     -0.2716
    174  ND2       21.6290  -40.5910   13.2010 N.am  231  ASN231     -0.0877
    175  N         24.6530  -40.3720   20.2180 N.3   234  TRP234     -0.1241
    176  CA        25.8250  -41.0600   19.6760 C.3   234  TRP234      0.1605
    177  C         26.2830  -40.4820   18.3370 C.2   234  TRP234      0.2264
    178  O         27.3790  -40.8040   17.8680 O.2   234  TRP234     -0.2867
    179  CB        25.5210  -42.5480   19.5010 C.3   234  TRP234      0.0550
    180  CG        24.3100  -42.7880   18.6350 C.ar  234  TRP234      0.0003
    181  CD1       24.2590  -42.7540   17.2720 C.ar  234  TRP234      0.0946
    182  CD2       22.9770  -43.0750   19.0800 C.ar  234  TRP234      0.0152
    183  NE1       22.9820  -43.0060   16.8430 N.ar  234  TRP234     -0.2442
    184  CE2       22.1750  -43.2110   17.9300 C.ar  234  TRP234      0.0810
    185  CE3       22.3840  -43.2350   20.3420 C.ar  234  TRP234      0.0012
    186  CZ2       20.8010  -43.5030   17.9980 C.ar  234  TRP234      0.0191
    187  CZ3       21.0140  -43.5200   20.4110 C.ar  234  TRP234      0.0001
    188  CH2       20.2420  -43.6530   19.2450 C.ar  234  TRP234      0.0015
    189  N         22.6930  -48.0010   28.0990 N.3   266  LYS266     -0.1245
    190  CA        23.8820  -48.7870   27.7850 C.3   266  LYS266      0.1561
    191  C         24.7210  -49.0250   29.0300 C.2   266  LYS266      0.2260
    192  O         25.2410  -48.0820   29.6370 O.2   266  LYS266     -0.2867
    193  CB        24.7260  -48.0730   26.7370 C.3   266  LYS266      0.0271
    194  CG        24.1040  -48.0210   25.3590 C.3   266  LYS266      0.0035
    195  CD        25.0470  -47.3080   24.4240 C.3   266  LYS266      0.0206
    196  CE        24.4230  -47.0660   23.0870 C.3   266  LYS266      0.1093
    197  NZ        25.0920  -45.9120   22.4580 N.3   266  LYS266     -0.1314
    198  N         12.8580  -49.3230   26.4230 N.3   334  MET334     -0.1245
    199  CA        12.6330  -50.5590   25.6790 C.3   334  MET334      0.1570
    200  C         12.3030  -51.6980   26.6550 C.2   334  MET334      0.2261
    201  O         12.9170  -51.7880   27.7160 O.2   334  MET334     -0.2867
    202  CB        13.8760  -50.9240   24.8560 C.3   334  MET334      0.0387
    203  CG        14.1160  -50.0220   23.6370 C.3   334  MET334      0.0595
    204  SD        15.6070  -50.3750   22.6850 S.3   334  MET334     -0.1393
    205  CE        16.8940  -49.7340   23.7400 C.3   334  MET334      0.0692
    206  N         13.0820  -57.9240   17.1470 N.3   344  TRP344     -0.1227
    207  CA        13.7280  -57.0000   16.1900 C.3   344  TRP344      0.1737
    208  C         13.7840  -57.4570   14.7290 C.2   344  TRP344      0.2595
    209  O         13.3050  -56.7500   13.8440 O.2   344  TRP344     -0.2718
    210  CB        15.1150  -56.5530   16.6710 C.3   344  TRP344      0.0564
    211  CG        15.0940  -55.7520   17.9570 C.ar  344  TRP344      0.0003
    212  CD1       15.5240  -56.1680   19.1870 C.ar  344  TRP344      0.0946
    213  CD2       14.6180  -54.4070   18.1350 C.ar  344  TRP344      0.0152
    214  NE1       15.3520  -55.1710   20.1130 N.ar  344  TRP344     -0.2442
    215  CE2       14.7950  -54.0800   19.5000 C.ar  344  TRP344      0.0810
    216  CE3       14.0630  -53.4450   17.2740 C.ar  344  TRP344      0.0012
    217  CZ2       14.4350  -52.8330   20.0290 C.ar  344  TRP344      0.0191
    218  CZ3       13.7000  -52.2020   17.8020 C.ar  344  TRP344      0.0001
    219  CH2       13.8880  -51.9120   19.1670 C.ar  344  TRP344      0.0015
    220  N         14.3700  -58.6260   14.4740 N.am  345  GLU345     -0.1979
    221  CA        14.4580  -59.1620   13.1080 C.3   345  GLU345      0.1602
    222  C         13.0990  -59.1980   12.3630 C.2   345  GLU345      0.2287
    223  O         12.9810  -58.6020   11.2940 O.2   345  GLU345     -0.2864
    224  CB        15.1650  -60.5240   13.0840 C.3   345  GLU345      0.0415
    225  CG        15.4100  -61.0910   11.6880 C.3   345  GLU345      0.1163
    226  CD        16.0560  -62.4720   11.7070 C.2   345  GLU345      0.3649
    227  OE1       15.8650  -63.2310   12.6880 O.co2 345  GLU345     -0.2457
    228  OE2       16.7540  -62.8080   10.7320 O.co2 345  GLU345     -0.2457
    229  N         11.5040  -55.5880   11.6990 N.3   348  ASN348     -0.1240
    230  CA        12.2860  -54.7920   10.7570 C.3   348  ASN348      0.1653
    231  C         12.2090  -55.3370    9.3460 C.2   348  ASN348      0.2266
    232  O         12.2570  -54.5800    8.3710 O.2   348  ASN348     -0.2867
    233  CB        13.7460  -54.6930   11.2050 C.3   348  ASN348      0.1155
    234  CG        13.9270  -53.7900   12.4080 C.2   348  ASN348      0.2627
    235  OD1       12.9750  -53.1890   12.9010 O.2   348  ASN348     -0.2716
    236  ND2       15.1580  -53.6860   12.8840 N.am  348  ASN348     -0.0877
@<TRIPOS>BOND
     1   144   145    1
     2   144   143    1
     3   143   142    1
     4   142   141    1
     5   137   138    1
     6   154   153    2
     7   153   152    1
     8   155   152    1
     9   155   156    1
    10   141   138    1
    11   138   139    1
    12   140   139    2
    13   158   156   ar
    14   152   151    1
    15   161   162    2
    16   161   160    1
    17   156   157   ar
    18   139   146   am
    19   151   148   am
    20   159   160    1
    21   232   231    2
    22   160   163    1
    23   149   148    2
    24   148   147    1
    25   146   147    1
    26    97    98    1
    27    97    96    1
    28    97   100    1
    29   231   230    1
    30   147   150    1
    31   163   164    1
    32    98    99    2
    33   101   100    1
    34   101   102    1
    35   105   106    1
    36   102   104   ar
    37   102   103   ar
    38   164   165    2
    39   164   166   am
    40   228   226   ar
    41   230   233    1
    42   230   229    1
    43   233   234    1
    44   223   222    2
    45   225   226    1
    46   225   224    1
    47   106   109    1
    48   106   107    1
    49   226   227   ar
    50   109   110    1
    51   222   221    1
    52   234   236   am
    53   234   235    2
    54   107   108    2
    55   112   110   am
    56   110   111    2
    57   224   221    1
    58   221   220    1
    59   174   172   am
    60    60    59    1
    61   129   130    1
    62   129   126    1
    63   209   208    2
    64   130   131   ar
    65   130   132   ar
    66   131   133   ar
    67   172   171    1
    68   172   173    2
    69    58    59    1
    70    58    57    1
    71   132   134   ar
    72   133   135   ar
    73   220   208   am
    74   171   168    1
    75   134   135   ar
    76   135   136    1
    77   208   207    1
    78   127   126    1
    79   127   128    2
    80    17    16    2
    81   167   168    1
    82   126   125    1
    83    12    11    2
    84    57    56    1
    85   168   169    1
    86   125   115   am
    87    16    15    1
    88   113   114    1
    89    35    32    1
    90   207   210    1
    91   207   206    1
    92    15    14    1
    93    15    18    1
    94    11    14   am
    95    11    10    1
    96    13    10    1
    97   210   211    1
    98    56    53    1
    99   115   114    1
   100   115   116    2
   101   183   181   ar
   102   183   184   ar
   103   169   170    2
   104   114   117    1
   105   117   118    1
   106    18    19    1
   107    50    49    1
   108   181   180   ar
   109   216   218   ar
   110   216   213   ar
   111    32    31    1
   112    32    33    1
   113    10     9    1
   114   120   118   ar
   115   120   122   ar
   116    48    49    1
   117    48    45    1
   118   218   219   ar
   119   178   177    2
   120    47    46    2
   121    53    52    1
   122    53    54    1
   123   184   186   ar
   124   184   182   ar
   125   211   213   ar
   126   211   212   ar
   127   186   188   ar
   128   118   119   ar
   129   213   215   ar
   130    19    21   ar
   131    19    20   ar
   132    46    52   am
   133    46    45    1
   134    49    51    1
   135   177   176    1
   136     9     3   am
   137    33    36   am
   138    33    34    2
   139   180   182   ar
   140   180   179    1
   141   122   123   ar
   142     7     6    2
   143    45    44    1
   144    44    38   am
   145    36    37    1
   146    55    54    2
   147   182   185   ar
   148   219   217   ar
   149   212   214   ar
   150   188   187   ar
   151   119   121   ar
   152   215   217   ar
   153   215   214   ar
   154   179   176    1
   155     3     4    2
   156     3     2    1
   157   176   175    1
   158     6     8   am
   159     6     5    1
   160   123   121   ar
   161   123   124    1
   162    38    37    1
   163    38    39    2
   164    37    40    1
   165   185   187   ar
   166    40    41    1
   167    30    28   am
   168    85    84    1
   169     2     5    1
   170     2     1    1
   171    28    29    2
   172    28    27    1
   173    43    41    1
   174    84    86    1
   175    84    83    2
   176    22    23    1
   177    27    26    1
   178    41    42    1
   179    26    23    1
   180    82    83    1
   181    82    81    1
   182    23    24    1
   183    75    73   ar
   184   197   196    1
   185    24    25    2
   186   204   203    1
   187   204   205    1
   188    81    80    1
   189    66    67    1
   190    66    65    1
   191    95    93   ar
   192   196   195    1
   193    94    93   ar
   194    67    61    1
   195    73    74   ar
   196    73    72    1
   197    93    92    1
   198   203   202    1
   199    65    62    1
   200    80    77    1
   201    92    91    1
   202    72    69    1
   203    91    88    1
   204   195   194    1
   205    89    90    2
   206    89    88    1
   207    61    62    1
   208   202   199    1
   209    62    63    1
   210    88    87    1
   211    77    76    1
   212    77    78    1
   213   194   193    1
   214    76    70   am
   215    64    63    2
   216    70    69    1
   217    70    71    2
   218    69    68    1
   219   199   198    1
   220   199   200    1
   221    79    78    2
   222   200   201    2
   223   193   190    1
   224   190   189    1
   225   190   191    1
   226   191   192    2
