@<TRIPOS>MOLECULE
tmp/2zymA00.pdb
 214 205 0 0 0
SMALL
GASTEIGER

@<TRIPOS>ATOM
      1  N          9.9630    3.5930   21.8520 N.3    10  ASN10      -0.1240
      2  CA        10.4250    3.3900   20.4750 C.3    10  ASN10       0.1653
      3  C          9.2780    3.1920   19.4830 C.2    10  ASN10       0.2266
      4  O          8.3500    2.4180   19.7400 O.2    10  ASN10      -0.2867
      5  CB        11.3810    2.1990   20.4060 C.3    10  ASN10       0.1155
      6  CG        12.0570    2.0680   19.0540 C.2    10  ASN10       0.2627
      7  OD1       12.3860    3.0640   18.4080 O.2    10  ASN10      -0.2716
      8  ND2       12.2750    0.8310   18.6240 N.am   10  ASN10      -0.0877
      9  N         10.7330    7.4600   17.7590 N.3    41  ALA41      -0.1231
     10  CA        11.9230    6.6810   17.4140 C.3    41  ALA41       0.1694
     11  C         13.0220    6.8450   18.4630 C.2    41  ALA41       0.2592
     12  O         13.3730    7.9650   18.8430 O.2    41  ALA41      -0.2718
     13  CB        12.4300    7.0670   16.0360 C.3    41  ALA41       0.0304
     14  N         13.5500    5.7170   18.9330 N.am   42  LEU42      -0.1966
     15  CA        14.4810    5.6900   20.0650 C.3    42  LEU42       0.1728
     16  C         15.6710    6.6360   19.8940 C.2    42  LEU42       0.2616
     17  O         16.0580    7.3270   20.8360 O.2    42  LEU42      -0.2715
     18  CB        14.9780    4.2620   20.3080 C.3    42  LEU42       0.0311
     19  CG        15.5880    3.9370   21.6720 C.3    42  LEU42       0.0022
     20  CD1       14.4960    3.6400   22.6870 C.3    42  LEU42       0.0001
     21  CD2       16.5220    2.7530   21.5440 C.3    42  LEU42       0.0001
     22  N         16.2310    6.6700   18.6870 N.am   43  LEU43      -0.1963
     23  CA        17.4110    7.4870   18.4020 C.3    43  LEU43       0.1728
     24  C         17.0730    8.9410   18.0790 C.2    43  LEU43       0.2616
     25  O         17.9610    9.7380   17.7720 O.2    43  LEU43      -0.2715
     26  CB        18.2460    6.8580   17.2810 C.3    43  LEU43       0.0311
     27  CG        18.8260    5.4650   17.5420 C.3    43  LEU43       0.0022
     28  CD1       19.7000    5.0360   16.3750 C.3    43  LEU43       0.0001
     29  CD2       19.6140    5.4030   18.8510 C.3    43  LEU43       0.0001
     30  N         15.7900    9.2780   18.1750 N.am   44  LYS44      -0.1977
     31  CA        15.3200   10.6460   17.9850 C.3    44  LYS44       0.1596
     32  C         14.8560   11.2810   19.2990 C.2    44  LYS44       0.2287
     33  O         14.6550   12.4930   19.3690 O.2    44  LYS44      -0.2864
     34  CB        14.1840   10.6840   16.9580 C.3    44  LYS44       0.0298
     35  CG        14.6110   10.3620   15.5280 C.3    44  LYS44       0.0038
     36  CD        13.5030   10.6710   14.5240 C.3    44  LYS44       0.0206
     37  CE        13.3050   12.1740   14.3440 C.3    44  LYS44       0.1093
     38  NZ        12.1980   12.4970   13.4000 N.3    44  LYS44      -0.1314
     39  N         19.6090    4.3590   24.2950 N.3    65  PRO65      -0.2116
     40  CA        20.8040    3.6340   24.7390 C.3    65  PRO65       0.1372
     41  C         21.7160    4.4800   25.6270 C.2    65  PRO65       0.2244
     42  O         21.8580    5.6870   25.4080 O.2    65  PRO65      -0.2868
     43  CB        21.5010    3.2640   23.4230 C.3    65  PRO65       0.0268
     44  CG        20.4100    3.2560   22.4160 C.3    65  PRO65       0.0207
     45  CD        19.5230    4.3890   22.8230 C.3    65  PRO65       0.0892
     46  N         24.7370    5.1690   26.0460 N.3    67  ASP67      -0.1225
     47  CA        25.9690    5.8320   25.6020 C.3    67  ASP67       0.1805
     48  C         25.8960    7.3620   25.6490 C.2    67  ASP67       0.2597
     49  O         26.9000    8.0300   25.8990 O.2    67  ASP67      -0.2718
     50  CB        26.4050    5.3450   24.2080 C.3    67  ASP67       0.1424
     51  CG        25.3180    5.4890   23.1600 C.2    67  ASP67       0.3668
     52  OD1       24.2520    4.8550   23.3100 O.co2  67  ASP67      -0.2456
     53  OD2       25.5360    6.2190   22.1690 O.co2  67  ASP67      -0.2456
     54  N         24.7050    7.9060   25.4250 N.am   68  ARG68      -0.1979
     55  CA        24.5080    9.3510   25.4650 C.3    68  ARG68       0.1597
     56  C         23.9570    9.8550   26.8080 C.2    68  ARG68       0.2287
     57  O         23.4510   10.9780   26.8910 O.2    68  ARG68      -0.2864
     58  CB        23.6240    9.8010   24.2970 C.3    68  ARG68       0.0334
     59  CG        24.3130    9.7300   22.9350 C.3    68  ARG68       0.0492
     60  CD        23.3970   10.1920   21.8050 C.3    68  ARG68       0.2205
     61  NE        23.0770   11.6160   21.9050 N.pl3  68  ARG68      -0.0865
     62  CZ        22.2060   12.2510   21.1290 C.cat  68  ARG68       0.5346
     63  NH1       21.5550   11.5950   20.1740 N.pl3  68  ARG68       0.1354
     64  NH2       21.9850   13.5510   21.3090 N.pl3  68  ARG68       0.1354
     65  N         21.9270   -5.4320   25.5920 N.3   113  GLU113     -0.1245
     66  CA        22.0700   -5.8600   24.1990 C.3   113  GLU113      0.1567
     67  C         23.4860   -5.8660   23.6270 C.2   113  GLU113      0.2260
     68  O         24.3030   -4.9940   23.9230 O.2   113  GLU113     -0.2867
     69  CB        21.1400   -5.0420   23.2900 C.3   113  GLU113      0.0388
     70  CG        21.3370   -3.5330   23.3620 C.3   113  GLU113      0.1160
     71  CD        20.2620   -2.7440   22.6220 C.2   113  GLU113      0.3649
     72  OE1       20.5550   -1.6000   22.2230 O.co2 113  GLU113     -0.2457
     73  OE2       19.1300   -3.2500   22.4420 O.co2 113  GLU113     -0.2457
     74  N         25.3890   -3.5510    8.6890 N.3   154  GLU154     -0.1245
     75  CA        25.6260   -2.1110    8.5510 C.3   154  GLU154      0.1567
     76  C         27.1070   -1.7840    8.7260 C.2   154  GLU154      0.2260
     77  O         27.5210   -1.2580    9.7670 O.2   154  GLU154     -0.2867
     78  CB        24.7970   -1.3210    9.5650 C.3   154  GLU154      0.0388
     79  CG        23.2920   -1.3370    9.3340 C.3   154  GLU154      0.1160
     80  CD        22.5430   -0.4600   10.3250 C.2   154  GLU154      0.3649
     81  OE1       21.5280   -0.9270   10.8770 O.co2 154  GLU154     -0.2457
     82  OE2       22.9650    0.6970   10.5560 O.co2 154  GLU154     -0.2457
     83  N         28.3770    1.6620    9.7470 N.3   157  ASN157     -0.1240
     84  CA        27.9540    2.0970   11.0770 C.3   157  ASN157      0.1653
     85  C         28.9250    1.5710   12.1280 C.2   157  ASN157      0.2266
     86  O         29.0450    0.3550   12.3210 O.2   157  ASN157     -0.2867
     87  CB        26.5260    1.6000   11.3460 C.3   157  ASN157      0.1155
     88  CG        25.9070    2.1770   12.6260 C.2   157  ASN157      0.2627
     89  OD1       26.6000    2.6180   13.5440 O.2   157  ASN157     -0.2716
     90  ND2       24.5810    2.1530   12.6840 N.am  157  ASN157     -0.0877
     91  N         28.8440    1.4510   15.3200 N.3   159  TYR159     -0.1227
     92  CA        28.2410    0.6020   16.3410 C.3   159  TYR159      0.1736
     93  C         28.4320   -0.8730   15.9880 C.2   159  TYR159      0.2595
     94  O         28.7280   -1.6930   16.8550 O.2   159  TYR159     -0.2718
     95  CB        26.7490    0.9140   16.5210 C.3   159  TYR159      0.0548
     96  CG        26.0810   -0.0240   17.5030 C.ar  159  TYR159     -0.0200
     97  CD1       26.2660    0.1290   18.8770 C.ar  159  TYR159     -0.0009
     98  CD2       25.3050   -1.0930   17.0550 C.ar  159  TYR159     -0.0009
     99  CE1       25.6740   -0.7500   19.7860 C.ar  159  TYR159      0.0417
    100  CE2       24.7090   -1.9700   17.9520 C.ar  159  TYR159      0.0417
    101  CZ        24.8980   -1.7920   19.3110 C.ar  159  TYR159      0.1957
    102  OH        24.3120   -2.6610   20.1960 O.3   159  TYR159     -0.2866
    103  N         28.2690   -1.1900   14.7060 N.am  160  TYR160     -0.1976
    104  CA        28.3640   -2.5620   14.2160 C.3   160  TYR160      0.1639
    105  C         29.7890   -3.0060   13.9200 C.2   160  TYR160      0.2290
    106  O         30.1280   -4.1730   14.1100 O.2   160  TYR160     -0.2864
    107  CB        27.5160   -2.7210   12.9550 C.3   160  TYR160      0.0560
    108  CG        26.0340   -2.7130   13.2350 C.ar  160  TYR160     -0.0198
    109  CD1       25.3190   -1.5180   13.2770 C.ar  160  TYR160     -0.0009
    110  CD2       25.3500   -3.9030   13.4670 C.ar  160  TYR160     -0.0009
    111  CE1       23.9540   -1.5080   13.5400 C.ar  160  TYR160      0.0417
    112  CE2       23.9880   -3.9060   13.7300 C.ar  160  TYR160      0.0417
    113  CZ        23.2980   -2.7050   13.7620 C.ar  160  TYR160      0.1957
    114  OH        21.9500   -2.7070   14.0200 O.3   160  TYR160     -0.2866
    115  N         21.3200    0.8050    5.5410 N.3   213  LYS213     -0.1231
    116  CA        20.5370    1.1830    6.7090 C.3   213  LYS213      0.1693
    117  C         19.8210   -0.0480    7.2510 C.2   213  LYS213      0.2592
    118  O         19.7250   -1.0650    6.5610 O.2   213  LYS213     -0.2718
    119  CB        19.5490    2.3070    6.3720 C.3   213  LYS213      0.0285
    120  CG        18.5530    1.9990    5.2660 C.3   213  LYS213      0.0035
    121  CD        17.7900    3.2560    4.8860 C.3   213  LYS213      0.0206
    122  CE        16.6590    2.9540    3.9260 C.3   213  LYS213      0.1093
    123  NZ        15.9830    4.2060    3.4870 N.3   213  LYS213     -0.1314
    124  N         19.3260    0.0500    8.4820 N.am  214  ALA214     -0.1966
    125  CA        18.6620   -1.0710    9.1500 C.3   214  ALA214      0.1728
    126  C         17.6010   -1.7470    8.2750 C.2   214  ALA214      0.2616
    127  O         17.5920   -2.9730    8.1480 O.2   214  ALA214     -0.2715
    128  CB        18.0660   -0.6210   10.4750 C.3   214  ALA214      0.0334
    129  N         16.7290   -0.9420    7.6670 N.am  215  ASP215     -0.1971
    130  CA        15.6510   -1.4390    6.8040 C.3   215  ASP215      0.1709
    131  C         16.1480   -2.3570    5.6850 C.2   215  ASP215      0.2293
    132  O         15.5250   -3.3810    5.3990 O.2   215  ASP215     -0.2864
    133  CB        14.8460   -0.2740    6.2100 C.3   215  ASP215      0.1436
    134  CG        13.9240    0.3940    7.2240 C.2   215  ASP215      0.3671
    135  OD1       13.2170    1.3470    6.8340 O.co2 215  ASP215     -0.2456
    136  OD2       13.8920   -0.0250    8.4030 O.co2 215  ASP215     -0.2456
    137  N         17.5990   -5.7300    7.3710 N.3   218  ASN218     -0.1240
    138  CA        16.4640   -6.4820    7.8980 C.3   218  ASN218      0.1653
    139  C         15.5160   -7.0000    6.8160 C.2   218  ASN218      0.2266
    140  O         15.0990   -8.1560    6.8640 O.2   218  ASN218     -0.2867
    141  CB        15.6920   -5.6410    8.9220 C.3   218  ASN218      0.1155
    142  CG        16.4670   -5.4290   10.2150 C.2   218  ASN218      0.2627
    143  OD1       17.2960   -6.2530   10.6030 O.2   218  ASN218     -0.2716
    144  ND2       16.1880   -4.3230   10.8930 N.am  218  ASN218     -0.0877
    145  N         23.6320   -8.4900   13.8360 N.3   231  ASN231     -0.1240
    146  CA        22.5390   -7.6710   14.3520 C.3   231  ASN231      0.1653
    147  C         22.2170   -8.0080   15.8110 C.2   231  ASN231      0.2266
    148  O         22.7660   -8.9580   16.3680 O.2   231  ASN231     -0.2867
    149  CB        21.2910   -7.8280   13.4660 C.3   231  ASN231      0.1155
    150  CG        20.4530   -6.5570   13.3970 C.2   231  ASN231      0.2627
    151  OD1       20.7630   -5.5560   14.0420 O.2   231  ASN231     -0.2716
    152  ND2       19.3930   -6.5890   12.5930 N.am  231  ASN231     -0.0877
    153  N         16.9120   -6.9900   19.1250 N.3   234  TRP234     -0.1241
    154  CA        15.7340   -6.2410   18.6890 C.3   234  TRP234      0.1605
    155  C         15.0690   -6.7950   17.4240 C.2   234  TRP234      0.2264
    156  O         13.8730   -6.6090   17.2220 O.2   234  TRP234     -0.2867
    157  CB        16.0950   -4.7680   18.4810 C.3   234  TRP234      0.0550
    158  CG        17.2960   -4.5540   17.5970 C.ar  234  TRP234      0.0003
    159  CD1       17.3130   -4.5070   16.2320 C.ar  234  TRP234      0.0946
    160  CD2       18.6480   -4.3500   18.0230 C.ar  234  TRP234      0.0152
    161  NE1       18.5930   -4.2860   15.7810 N.ar  234  TRP234     -0.2442
    162  CE2       19.4320   -4.1870   16.8620 C.ar  234  TRP234      0.0810
    163  CE3       19.2740   -4.2840   19.2770 C.ar  234  TRP234      0.0012
    164  CZ2       20.8150   -3.9610   16.9140 C.ar  234  TRP234      0.0191
    165  CZ3       20.6490   -4.0650   19.3280 C.ar  234  TRP234      0.0001
    166  CH2       21.4020   -3.9100   18.1540 C.ar  234  TRP234      0.0015
    167  N         19.4650   -0.1700   27.5510 N.3   266  LYS266     -0.1245
    168  CA        18.3660    0.7580   27.3470 C.3   266  LYS266      0.1561
    169  C         17.5430    0.8040   28.6190 C.2   266  LYS266      0.2260
    170  O         17.0300   -0.2200   29.0740 O.2   266  LYS266     -0.2867
    171  CB        17.4910    0.3300   26.1670 C.3   266  LYS266      0.0271
    172  CG        18.2340    0.1830   24.8500 C.3   266  LYS266      0.0035
    173  CD        17.2930    0.0420   23.6610 C.3   266  LYS266      0.0206
    174  CE        16.5230   -1.2740   23.6650 C.3   266  LYS266      0.1093
    175  NZ        15.3210   -1.2230   24.5310 N.3   266  LYS266     -0.1314
    176  N         29.3100    0.4350   25.9610 N.3   334  MET334     -0.1245
    177  CA        29.6380    1.6640   25.2480 C.3   334  MET334      0.1570
    178  C         30.0400    2.7230   26.2640 C.2   334  MET334      0.2261
    179  O         29.4780    2.7590   27.3600 O.2   334  MET334     -0.2867
    180  CB        28.4360    2.1670   24.4500 C.3   334  MET334      0.0387
    181  CG        28.0960    1.3400   23.2300 C.3   334  MET334      0.0595
    182  SD        26.7300    2.0240   22.2910 S.3   334  MET334     -0.1393
    183  CE        25.3410    1.6550   23.3700 C.3   334  MET334      0.0692
    184  N         29.6780    9.8760   17.4030 N.3   344  TRP344     -0.1227
    185  CA        28.9280    9.0790   16.4190 C.3   344  TRP344      0.1737
    186  C         28.8460    9.6550   15.0080 C.2   344  TRP344      0.2595
    187  O         29.0920    8.9420   14.0370 O.2   344  TRP344     -0.2718
    188  CB        27.5250    8.7370   16.9350 C.3   344  TRP344      0.0564
    189  CG        27.5220    7.8340   18.1370 C.ar  344  TRP344      0.0003
    190  CD1       27.1200    8.1560   19.4040 C.ar  344  TRP344      0.0946
    191  CD2       27.9340    6.4620   18.1830 C.ar  344  TRP344      0.0152
    192  NE1       27.2540    7.0680   20.2330 N.ar  344  TRP344     -0.2442
    193  CE2       27.7550    6.0170   19.5110 C.ar  344  TRP344      0.0810
    194  CE3       28.4400    5.5630   17.2300 C.ar  344  TRP344      0.0012
    195  CZ2       28.0580    4.7110   19.9120 C.ar  344  TRP344      0.0191
    196  CZ3       28.7440    4.2650   17.6320 C.ar  344  TRP344      0.0001
    197  CH2       28.5540    3.8550   18.9620 C.ar  344  TRP344      0.0015
    198  N         28.4950   10.9330   14.8900 N.am  345  GLU345     -0.1979
    199  CA        28.3330   11.5460   13.5650 C.3   345  GLU345      0.1602
    200  C         29.6370   11.5470   12.7430 C.2   345  GLU345      0.2287
    201  O         29.6410   11.0460   11.6180 O.2   345  GLU345     -0.2864
    202  CB        27.6920   12.9410   13.6520 C.3   345  GLU345      0.0415
    203  CG        27.4820   13.6160   12.2980 C.3   345  GLU345      0.1163
    204  CD        26.5020   14.7700   12.3590 C.2   345  GLU345      0.3649
    205  OE1       25.2890   14.5180   12.5200 O.co2 345  GLU345     -0.2457
    206  OE2       26.9440   15.9310   12.2310 O.co2 345  GLU345     -0.2457
    207  N         30.7780    7.7980   11.8990 N.3   348  ASN348     -0.1240
    208  CA        29.8900    7.2340   10.8820 C.3   348  ASN348      0.1653
    209  C         30.0770    7.9090    9.5230 C.2   348  ASN348      0.2266
    210  O         30.0240    7.2480    8.4840 O.2   348  ASN348     -0.2867
    211  CB        28.4230    7.3020   11.3280 C.3   348  ASN348      0.1155
    212  CG        28.0360    6.1730   12.2850 C.2   348  ASN348      0.2627
    213  OD1       26.8880    6.0920   12.7230 O.2   348  ASN348     -0.2716
    214  ND2       28.9860    5.3030   12.6090 N.am  348  ASN348     -0.0877
@<TRIPOS>BOND
     1   123   122    1
     2   122   121    1
     3   121   120    1
     4   120   119    1
     5   132   131    2
     6   115   116    1
     7   131   130    1
     8   133   130    1
     9   133   134    1
    10   119   116    1
    11   118   117    2
    12   116   117    1
    13   130   129    1
    14   139   140    2
    15   139   138    1
    16   135   134   ar
    17   134   136   ar
    18   117   124   am
    19   137   138    1
    20   129   126   am
    21   138   141    1
    22   127   126    2
    23   126   125    1
    24   124   125    1
    25   210   209    2
    26    75    74    1
    27    75    76    1
    28    75    78    1
    29    76    77    2
    30   141   142    1
    31   125   128    1
    32    79    78    1
    33    79    80    1
    34   209   208    1
    35    83    84    1
    36   142   143    2
    37   142   144   am
    38    80    82   ar
    39    80    81   ar
    40   208   211    1
    41   208   207    1
    42    84    87    1
    43    84    85    1
    44   211   212    1
    45    87    88    1
    46   201   200    2
    47    85    86    2
    48   206   204   ar
    49   212   214   am
    50   212   213    2
    51   203   204    1
    52   203   202    1
    53   204   205   ar
    54   152   150   am
    55    88    90   am
    56    88    89    2
    57   200   199    1
    58   107   108    1
    59   107   104    1
    60   108   109   ar
    61   108   110   ar
    62   109   111   ar
    63   150   149    1
    64   150   151    2
    65    38    37    1
    66   149   146    1
    67   110   112   ar
    68   111   113   ar
    69   199   202    1
    70   199   198    1
    71   112   113   ar
    72   113   114    1
    73   145   146    1
    74   105   106    2
    75   105   104    1
    76   187   186    2
    77   104   103    1
    78    37    36    1
    79   146   147    1
    80    36    35    1
    81   103    93   am
    82   198   186   am
    83   186   185    1
    84    91    92    1
    85    35    34    1
    86   161   159   ar
    87   161   162   ar
    88   147   148    2
    89    93    92    1
    90    93    94    2
    91    13    10    1
    92   159   158   ar
    93    92    95    1
    94    28    27    1
    95   185   188    1
    96   185   184    1
    97    95    96    1
    98   162   164   ar
    99   162   160   ar
   100   164   166   ar
   101   188   189    1
   102    34    31    1
   103    98    96   ar
   104    98   100   ar
   105   156   155    2
   106   194   196   ar
   107   194   191   ar
   108    26    27    1
   109    26    23    1
   110    10     9    1
   111    10    11    1
   112   155   154    1
   113    96    97   ar
   114    27    29    1
   115   158   160   ar
   116   158   157    1
   117   196   197   ar
   118    25    24    2
   119   100   101   ar
   120    31    30    1
   121    31    32    1
   122   160   163   ar
   123    24    30   am
   124    24    23    1
   125   189   191   ar
   126   189   190   ar
   127   166   165   ar
   128   191   193   ar
   129    23    22    1
   130     7     6    2
   131    11    12    2
   132    11    14   am
   133   157   154    1
   134     8     6   am
   135    22    16   am
   136   154   153    1
   137    97    99   ar
   138    14    15    1
   139   197   195   ar
   140     6     5    1
   141   163   165   ar
   142    32    33    2
   143   101    99   ar
   144   101   102    1
   145   190   192   ar
   146     3     4    2
   147     3     2    1
   148   193   195   ar
   149   193   192   ar
   150    16    15    1
   151    16    17    2
   152    15    18    1
   153    63    62    1
   154    18    19    1
   155     5     2    1
   156     2     1    1
   157    62    64    1
   158    62    61    2
   159    21    19    1
   160    19    20    1
   161    60    61    1
   162    60    59    1
   163    53    51   ar
   164    72    71   ar
   165   182   181    1
   166   182   183    1
   167    44    45    1
   168    44    43    1
   169    73    71   ar
   170    71    70    1
   171    45    39    1
   172    59    58    1
   173    51    52   ar
   174    51    50    1
   175   181   180    1
   176    69    70    1
   177    69    66    1
   178    43    40    1
   179    67    68    2
   180    67    66    1
   181   173   174    1
   182   173   172    1
   183   174   175    1
   184    66    65    1
   185    50    47    1
   186    39    40    1
   187    58    55    1
   188   180   177    1
   189    40    41    1
   190   172   171    1
   191   177   176    1
   192   177   178    1
   193    42    41    2
   194    54    55    1
   195    54    48   am
   196    55    56    1
   197    47    48    1
   198    47    46    1
   199    48    49    2
   200   171   168    1
   201   178   179    2
   202    56    57    2
   203   168   167    1
   204   168   169    1
   205   169   170    2
