@<TRIPOS>MOLECULE
tmp/2zynA00.pdb
 245 234 0 0 0
SMALL
GASTEIGER

@<TRIPOS>ATOM
      1  N        -28.1040    3.9840  -20.5080 N.3    12  ASN12      -0.1225
      2  CA       -27.5850    3.8060  -21.8610 C.3    12  ASN12       0.1785
      3  C        -28.6970    3.5590  -22.8800 C.2    12  ASN12       0.2597
      4  O        -29.5530    2.6920  -22.6810 O.2    12  ASN12      -0.2718
      5  CB       -26.5730    2.6540  -21.8830 C.3    12  ASN12       0.1169
      6  CG       -25.8850    2.4900  -23.2310 C.2    12  ASN12       0.2627
      7  OD1      -25.7710    3.4360  -24.0120 O.2    12  ASN12      -0.2716
      8  ND2      -25.3970    1.2790  -23.4970 N.am   12  ASN12      -0.0877
      9  N        -28.6710    4.3360  -23.9620 N.am   13  ALA13      -0.1966
     10  CA       -29.6690    4.2450  -25.0220 C.3    13  ALA13       0.1728
     11  C        -29.3640    3.0880  -25.9670 C.2    13  ALA13       0.2616
     12  O        -29.0440    3.2960  -27.1470 O.2    13  ALA13      -0.2715
     13  CB       -29.7570    5.5690  -25.7850 C.3    13  ALA13       0.0334
     14  N        -29.4580    1.8710  -25.4360 N.am   14  ASP14      -0.1971
     15  CA       -29.2480    0.6610  -26.2320 C.3    14  ASP14       0.1709
     16  C        -30.5330    0.1650  -26.9020 C.2    14  ASP14       0.2293
     17  O        -30.5290   -0.8940  -27.5380 O.2    14  ASP14      -0.2864
     18  CB       -28.5620   -0.4460  -25.4000 C.3    14  ASP14       0.1436
     19  CG       -29.4910   -1.1110  -24.3830 C.2    14  ASP14       0.3671
     20  OD1      -30.4960   -0.5050  -23.9530 O.co2  14  ASP14      -0.2456
     21  OD2      -29.1960   -2.2640  -23.9960 O.co2  14  ASP14      -0.2456
     22  N        -30.4520   -3.1610  -21.5780 N.3    18  GLN18      -0.1245
     23  CA       -29.9540   -2.3030  -20.5020 C.3    18  GLN18       0.1566
     24  C        -30.9890   -1.2620  -20.1070 C.2    18  GLN18       0.2260
     25  O        -31.2290   -1.0290  -18.9180 O.2    18  GLN18      -0.2867
     26  CB       -28.6510   -1.6200  -20.9060 C.3    18  GLN18       0.0367
     27  CG       -27.4740   -2.5660  -21.0620 C.3    18  GLN18       0.0905
     28  CD       -26.1990   -1.8550  -21.4660 C.2    18  GLN18       0.2608
     29  OE1      -26.0530   -0.6480  -21.2630 O.2    18  GLN18      -0.2717
     30  NE2      -25.2630   -2.6030  -22.0390 N.am   18  GLN18      -0.0878
     31  N        -27.2140    7.8810  -24.6760 N.3    43  ALA43      -0.1231
     32  CA       -26.0140    7.1060  -25.0110 C.3    43  ALA43       0.1694
     33  C        -24.9410    7.1740  -23.9280 C.2    43  ALA43       0.2592
     34  O        -24.6100    8.2510  -23.4340 O.2    43  ALA43      -0.2718
     35  CB       -25.4500    7.5500  -26.3520 C.3    43  ALA43       0.0304
     36  N        -24.3990    6.0100  -23.5760 N.am   44  LEU44      -0.1966
     37  CA       -23.3760    5.8870  -22.5320 C.3    44  LEU44       0.1728
     38  C        -22.2750    6.9500  -22.6320 C.2    44  LEU44       0.2616
     39  O        -21.8880    7.5540  -21.6300 O.2    44  LEU44      -0.2715
     40  CB       -22.7560    4.4850  -22.5820 C.3    44  LEU44       0.0311
     41  CG       -21.7840    4.0660  -21.4790 C.3    44  LEU44       0.0022
     42  CD1      -22.5200    3.7630  -20.1690 C.3    44  LEU44       0.0001
     43  CD2      -20.9700    2.8700  -21.9330 C.3    44  LEU44       0.0001
     44  N        -21.7110    7.0930  -23.8320 N.am   45  LEU45      -0.1963
     45  CA       -20.6220    8.0290  -24.0940 C.3    45  LEU45       0.1728
     46  C        -21.0360    9.4980  -24.3280 C.2    45  LEU45       0.2616
     47  O        -20.1690   10.3590  -24.5390 O.2    45  LEU45      -0.2715
     48  CB       -19.7070    7.4660  -25.2070 C.3    45  LEU45       0.0311
     49  CG       -19.0470    6.0860  -24.9460 C.3    45  LEU45       0.0022
     50  CD1      -18.2820    5.5870  -26.1720 C.3    45  LEU45       0.0001
     51  CD2      -18.1130    6.1440  -23.7390 C.3    45  LEU45       0.0001
     52  N        -22.3510    9.7700  -24.2950 N.am   46  LYS46      -0.1977
     53  CA       -22.8540   11.1320  -24.4420 C.3    46  LYS46       0.1596
     54  C        -23.3240   11.7140  -23.1090 C.2    46  LYS46       0.2287
     55  O        -23.5070   12.9310  -22.9940 O.2    46  LYS46      -0.2864
     56  CB       -23.9730   11.1920  -25.4850 C.3    46  LYS46       0.0298
     57  CG       -23.5110   10.9390  -26.9210 C.3    46  LYS46       0.0038
     58  CD       -24.6400   11.1440  -27.9330 C.3    46  LYS46       0.0206
     59  CE       -24.9030   12.6240  -28.2070 C.3    46  LYS46       0.1093
     60  NZ       -26.0130   12.8320  -29.1820 N.3    46  LYS46      -0.1314
     61  N        -21.0790   14.5250  -21.2740 N.3    49  GLU49      -0.1245
     62  CA       -21.1590   15.7810  -22.0150 C.3    49  GLU49       0.1567
     63  C        -22.5260   16.4450  -21.8550 C.2    49  GLU49       0.2260
     64  O        -22.6080   17.6650  -21.7080 O.2    49  GLU49      -0.2867
     65  CB       -20.8200   15.5760  -23.4970 C.3    49  GLU49       0.0388
     66  CG       -19.3560   15.2130  -23.7670 C.3    49  GLU49       0.1160
     67  CD       -18.3700   16.2540  -23.2470 C.2    49  GLU49       0.3649
     68  OE1      -18.6600   17.4690  -23.3390 O.co2  49  GLU49      -0.2457
     69  OE2      -17.2980   15.8530  -22.7440 O.co2  49  GLU49      -0.2457
     70  N        -18.5690    4.6250  -18.0390 N.3    67  PRO67      -0.2116
     71  CA       -17.3800    3.9080  -17.5630 C.3    67  PRO67       0.1372
     72  C        -16.4570    4.7980  -16.7220 C.2    67  PRO67       0.2244
     73  O        -16.3570    5.9970  -16.9650 O.2    67  PRO67      -0.2868
     74  CB       -16.6840    3.4700  -18.8540 C.3    67  PRO67       0.0268
     75  CG       -17.7530    3.4750  -19.8920 C.3    67  PRO67       0.0207
     76  CD       -18.6700    4.5940  -19.5120 C.3    67  PRO67       0.0892
     77  N        -13.3860    5.5340  -16.3680 N.3    69  ASP69      -0.1225
     78  CA       -12.1670    6.2230  -16.8170 C.3    69  ASP69       0.1805
     79  C        -12.2730    7.7420  -16.7100 C.2    69  ASP69       0.2597
     80  O        -11.2870    8.4200  -16.4270 O.2    69  ASP69      -0.2718
     81  CB       -11.7630    5.8210  -18.2420 C.3    69  ASP69       0.1424
     82  CG       -12.8830    5.9970  -19.2430 C.2    69  ASP69       0.3668
     83  OD1      -13.8740    5.2450  -19.1580 O.co2  69  ASP69      -0.2456
     84  OD2      -12.7640    6.8570  -20.1440 O.co2  69  ASP69      -0.2456
     85  N        -13.4730    8.2680  -16.9210 N.am   70  ARG70      -0.1979
     86  CA       -13.6760    9.7120  -16.8930 C.3    70  ARG70       0.1597
     87  C        -14.2260   10.2260  -15.5580 C.2    70  ARG70       0.2287
     88  O        -14.7840   11.3160  -15.4960 O.2    70  ARG70      -0.2864
     89  CB       -14.5670   10.1460  -18.0560 C.3    70  ARG70       0.0334
     90  CG       -13.9260    9.9900  -19.4270 C.3    70  ARG70       0.0492
     91  CD       -14.8720   10.4240  -20.5310 C.3    70  ARG70       0.2205
     92  NE       -15.1800   11.8530  -20.4570 N.pl3  70  ARG70      -0.0865
     93  CZ       -16.1290   12.4620  -21.1610 C.cat  70  ARG70       0.5346
     94  NH1      -16.8950   11.7770  -22.0050 N.pl3  70  ARG70       0.1354
     95  NH2      -16.3210   13.7670  -21.0130 N.pl3  70  ARG70       0.1354
     96  N        -16.0820   -5.1850  -16.6970 N.3   115  GLU115     -0.1245
     97  CA       -15.9580   -5.6670  -18.0760 C.3   115  GLU115      0.1567
     98  C        -14.5590   -5.5930  -18.6770 C.2   115  GLU115      0.2260
     99  O        -13.7720   -4.7020  -18.3600 O.2   115  GLU115     -0.2867
    100  CB       -16.9450   -4.9140  -18.9770 C.3   115  GLU115      0.0388
    101  CG       -16.5900   -3.4460  -19.2080 C.3   115  GLU115      0.1160
    102  CD       -17.7460   -2.6140  -19.7330 C.2   115  GLU115      0.3649
    103  OE1      -17.5230   -1.4180  -20.0080 O.co2 115  GLU115     -0.2457
    104  OE2      -18.8730   -3.1410  -19.8730 O.co2 115  GLU115     -0.2457
    105  N        -12.7570   -3.3490  -33.7450 N.3   156  GLU156     -0.1245
    106  CA       -12.5410   -1.9070  -33.8330 C.3   156  GLU156      0.1567
    107  C        -11.0700   -1.5470  -33.6450 C.2   156  GLU156      0.2260
    108  O        -10.6780   -1.0360  -32.5930 O.2   156  GLU156     -0.2867
    109  CB       -13.3900   -1.1860  -32.7860 C.3   156  GLU156      0.0388
    110  CG       -14.5960   -0.4680  -33.3350 C.3   156  GLU156      0.1160
    111  CD       -15.4190    0.1720  -32.2410 C.2   156  GLU156      0.3649
    112  OE1      -16.2120   -0.5460  -31.5960 O.co2 156  GLU156     -0.2457
    113  OE2      -15.2720    1.3910  -32.0310 O.co2 156  GLU156     -0.2457
    114  N         -9.7480    1.9970  -32.6470 N.3   159  ASN159     -0.1240
    115  CA       -10.1850    2.4250  -31.3150 C.3   159  ASN159      0.1653
    116  C         -9.2050    1.9510  -30.2450 C.2   159  ASN159      0.2266
    117  O         -9.0160    0.7490  -30.0540 O.2   159  ASN159     -0.2867
    118  CB       -11.5920    1.8780  -31.0360 C.3   159  ASN159      0.1155
    119  CG       -12.2410    2.4870  -29.7950 C.2   159  ASN159      0.2627
    120  OD1      -11.5680    2.8530  -28.8270 O.2   159  ASN159     -0.2716
    121  ND2      -13.5670    2.5810  -29.8180 N.am  159  ASN159     -0.0877
    122  N         -9.3810    1.8780  -27.0610 N.3   161  TYR161     -0.1227
    123  CA        -9.9940    1.0070  -26.0530 C.3   161  TYR161      0.1736
    124  C         -9.7980   -0.4640  -26.4110 C.2   161  TYR161      0.2595
    125  O         -9.5520   -1.2910  -25.5360 O.2   161  TYR161     -0.2718
    126  CB       -11.4860    1.3050  -25.8600 C.3   161  TYR161      0.0548
    127  CG       -12.1220    0.3680  -24.8570 C.ar  161  TYR161     -0.0200
    128  CD1      -11.9460    0.5640  -23.4880 C.ar  161  TYR161     -0.0009
    129  CD2      -12.8730   -0.7340  -25.2760 C.ar  161  TYR161     -0.0009
    130  CE1      -12.5050   -0.3020  -22.5610 C.ar  161  TYR161      0.0417
    131  CE2      -13.4410   -1.6090  -24.3520 C.ar  161  TYR161      0.0417
    132  CZ       -13.2510   -1.3850  -23.0010 C.ar  161  TYR161      0.1957
    133  OH       -13.8040   -2.2370  -22.0790 O.3   161  TYR161     -0.2866
    134  N         -9.9210   -0.7750  -27.7010 N.am  162  TYR162     -0.1976
    135  CA        -9.8030   -2.1420  -28.1900 C.3   162  TYR162      0.1639
    136  C         -8.3630   -2.5640  -28.4440 C.2   162  TYR162      0.2290
    137  O         -8.0020   -3.7160  -28.2130 O.2   162  TYR162     -0.2864
    138  CB       -10.6190   -2.3180  -29.4690 C.3   162  TYR162      0.0560
    139  CG       -12.1080   -2.3680  -29.2260 C.ar  162  TYR162     -0.0198
    140  CD1      -12.8640   -1.1930  -29.1230 C.ar  162  TYR162     -0.0009
    141  CD2      -12.7660   -3.5910  -29.1000 C.ar  162  TYR162     -0.0009
    142  CE1      -14.2340   -1.2440  -28.8930 C.ar  162  TYR162      0.0417
    143  CE2      -14.1290   -3.6490  -28.8730 C.ar  162  TYR162      0.0417
    144  CZ       -14.8590   -2.4770  -28.7700 C.ar  162  TYR162      0.1957
    145  OH       -16.2160   -2.5450  -28.5470 O.3   162  TYR162     -0.2866
    146  N        -16.4510    1.0780  -37.1360 N.3   215  LYS215     -0.1231
    147  CA       -17.2740    1.4000  -35.9790 C.3   215  LYS215      0.1693
    148  C        -17.9560    0.1350  -35.4710 C.2   215  LYS215      0.2592
    149  O        -18.0060   -0.8780  -36.1790 O.2   215  LYS215     -0.2718
    150  CB       -18.2970    2.4980  -36.3070 C.3   215  LYS215      0.0285
    151  CG       -19.1780    2.2380  -37.5220 C.3   215  LYS215      0.0035
    152  CD       -20.0800    3.4330  -37.7970 C.3   215  LYS215      0.0206
    153  CE       -20.9160    3.2240  -39.0520 C.3   215  LYS215      0.1093
    154  NZ       -21.9390    4.2980  -39.2120 N.3   215  LYS215     -0.1314
    155  N        -18.4660    0.2020  -34.2430 N.am  216  ALA216     -0.1966
    156  CA       -19.1180   -0.9330  -33.5890 C.3   216  ALA216      0.1728
    157  C        -20.1720   -1.6070  -34.4710 C.2   216  ALA216      0.2616
    158  O        -20.2250   -2.8350  -34.5480 O.2   216  ALA216     -0.2715
    159  CB       -19.7290   -0.4980  -32.2610 C.3   216  ALA216      0.0334
    160  N        -20.9940   -0.7980  -35.1410 N.am  217  ASP217     -0.1971
    161  CA       -22.0940   -1.3070  -35.9670 C.3   217  ASP217      0.1709
    162  C        -21.6260   -2.1820  -37.1260 C.2   217  ASP217      0.2293
    163  O        -22.3180   -3.1270  -37.5130 O.2   217  ASP217     -0.2864
    164  CB       -22.9590   -0.1550  -36.4900 C.3   217  ASP217      0.1436
    165  CG       -23.8540    0.4400  -35.4180 C.2   217  ASP217      0.3671
    166  OD1      -24.4440    1.5110  -35.6750 O.co2 217  ASP217     -0.2456
    167  OD2      -23.9740   -0.1570  -34.3230 O.co2 217  ASP217     -0.2456
    168  N        -20.3000   -5.4880  -35.2330 N.3   220  ASN220     -0.1240
    169  CA       -21.4610   -6.2370  -34.7530 C.3   220  ASN220      0.1653
    170  C        -22.3440   -6.7690  -35.8770 C.2   220  ASN220      0.2266
    171  O        -22.7240   -7.9390  -35.8670 O.2   220  ASN220     -0.2867
    172  CB       -22.3010   -5.3840  -33.8040 C.3   220  ASN220      0.1155
    173  CG       -21.5780   -5.0630  -32.5130 C.2   220  ASN220      0.2627
    174  OD1      -20.7540   -5.8430  -32.0380 O.2   220  ASN220     -0.2716
    175  ND2      -21.8900   -3.9070  -31.9310 N.am  220  ASN220     -0.0877
    176  N        -14.5310   -8.1810  -28.5510 N.3   233  ASN233     -0.1240
    177  CA       -15.6020   -7.3680  -27.9900 C.3   233  ASN233      0.1653
    178  C        -15.9180   -7.8090  -26.5670 C.2   233  ASN233      0.2266
    179  O        -15.3600   -8.8000  -26.0840 O.2   233  ASN233     -0.2867
    180  CB       -16.8520   -7.4080  -28.8860 C.3   233  ASN233      0.1155
    181  CG       -17.5550   -6.0610  -28.9720 C.2   233  ASN233      0.2627
    182  OD1      -17.1820   -5.1070  -28.2830 O.2   233  ASN233     -0.2716
    183  ND2      -18.5720   -5.9730  -29.8290 N.am  233  ASN233     -0.0877
    184  N        -21.1560   -6.9030  -23.2020 N.3   236  TRP236     -0.1241
    185  CA       -22.2860   -6.0880  -23.6200 C.3   236  TRP236      0.1605
    186  C        -22.8400   -6.4960  -24.9870 C.2   236  TRP236      0.2264
    187  O        -23.9390   -6.0980  -25.3460 O.2   236  TRP236     -0.2867
    188  CB       -21.8760   -4.6100  -23.6590 C.3   236  TRP236      0.0550
    189  CG       -20.7000   -4.3610  -24.5550 C.ar  236  TRP236      0.0003
    190  CD1      -20.7100   -4.2650  -25.9190 C.ar  236  TRP236      0.0946
    191  CD2      -19.3360   -4.1940  -24.1500 C.ar  236  TRP236      0.0152
    192  NE1      -19.4360   -4.0420  -26.3870 N.ar  236  TRP236     -0.2442
    193  CE2      -18.5730   -3.9980  -25.3220 C.ar  236  TRP236      0.0810
    194  CE3      -18.6820   -4.1910  -22.9090 C.ar  236  TRP236      0.0012
    195  CZ2      -17.1890   -3.7910  -25.2890 C.ar  236  TRP236      0.0191
    196  CZ3      -17.3040   -3.9980  -22.8790 C.ar  236  TRP236      0.0001
    197  CH2      -16.5770   -3.7950  -24.0590 C.ar  236  TRP236      0.0015
    198  N        -18.6790    0.1410  -14.8210 N.3   268  LYS268     -0.1245
    199  CA       -19.8190    1.0270  -15.0300 C.3   268  LYS268      0.1561
    200  C        -20.6360    1.1100  -13.7500 C.2   268  LYS268      0.2260
    201  O        -21.0850    0.0940  -13.2190 O.2   268  LYS268     -0.2867
    202  CB       -20.6720    0.5600  -16.2160 C.3   268  LYS268      0.0271
    203  CG       -19.9670    0.7480  -17.5580 C.3   268  LYS268      0.0035
    204  CD       -20.8530    0.4580  -18.7650 C.3   268  LYS268      0.0206
    205  CE       -20.9910   -1.0270  -19.0080 C.3   268  LYS268      0.1093
    206  NZ       -21.1600   -1.3430  -20.4540 N.3   268  LYS268     -0.1314
    207  N         -8.8140    0.8640  -16.3590 N.3   336  MET336     -0.1245
    208  CA        -8.5270    2.1190  -17.0440 C.3   336  MET336      0.1570
    209  C         -8.1370    3.1720  -16.0140 C.2   336  MET336      0.2261
    210  O         -8.7390    3.2320  -14.9360 O.2   336  MET336     -0.2867
    211  CB        -9.7420    2.6100  -17.8310 C.3   336  MET336      0.0387
    212  CG       -10.0890    1.7510  -19.0350 C.3   336  MET336      0.0595
    213  SD       -11.4120    2.4420  -20.0340 S.3   336  MET336     -0.1393
    214  CE       -12.8430    2.0670  -19.0210 C.3   336  MET336      0.0692
    215  N         -8.4980   10.2540  -25.0210 N.3   346  TRP346     -0.1227
    216  CA        -9.2660    9.4620  -25.9950 C.3   346  TRP346      0.1737
    217  C         -9.3750   10.0270  -27.4090 C.2   346  TRP346      0.2595
    218  O         -9.1290    9.3060  -28.3770 O.2   346  TRP346     -0.2718
    219  CB       -10.6580    9.1230  -25.4560 C.3   346  TRP346      0.0564
    220  CG       -10.6330    8.2160  -24.2580 C.ar  346  TRP346      0.0003
    221  CD1      -10.9770    8.5470  -22.9840 C.ar  346  TRP346      0.0946
    222  CD2      -10.2380    6.8350  -24.2220 C.ar  346  TRP346      0.0152
    223  NE1      -10.8310    7.4620  -22.1560 N.ar  346  TRP346     -0.2442
    224  CE2      -10.3770    6.3980  -22.8890 C.ar  346  TRP346      0.0810
    225  CE3       -9.7790    5.9260  -25.1870 C.ar  346  TRP346      0.0012
    226  CZ2      -10.0840    5.0860  -22.4910 C.ar  346  TRP346      0.0191
    227  CZ3       -9.4890    4.6250  -24.7940 C.ar  346  TRP346      0.0001
    228  CH2       -9.6370    4.2190  -23.4540 C.ar  346  TRP346      0.0015
    229  N         -9.7470   11.2990  -27.5330 N.am  347  GLU347     -0.1979
    230  CA        -9.9280   11.9020  -28.8580 C.3   347  GLU347      0.1602
    231  C         -8.6310   11.9140  -29.6880 C.2   347  GLU347      0.2287
    232  O         -8.6240   11.3980  -30.8040 O.2   347  GLU347     -0.2864
    233  CB       -10.5820   13.2910  -28.7810 C.3   347  GLU347      0.0415
    234  CG       -10.9570   13.8780  -30.1440 C.3   347  GLU347      0.1163
    235  CD       -11.6790   15.2100  -30.0390 C.2   347  GLU347      0.3649
    236  OE1      -12.6670   15.3030  -29.2780 O.co2 347  GLU347     -0.2457
    237  OE2      -11.2700   16.1660  -30.7320 O.co2 347  GLU347     -0.2457
    238  N         -7.4660    8.2160  -30.5050 N.3   350  ASN350     -0.1240
    239  CA        -8.3330    7.6040  -31.5140 C.3   350  ASN350      0.1653
    240  C         -8.1390    8.2510  -32.8830 C.2   350  ASN350      0.2266
    241  O         -8.1580    7.5600  -33.9010 O.2   350  ASN350     -0.2867
    242  CB        -9.8080    7.6300  -31.0870 C.3   350  ASN350      0.1155
    243  CG       -10.1760    6.4840  -30.1420 C.2   350  ASN350      0.2627
    244  OD1      -11.3450    6.2930  -29.8030 O.2   350  ASN350     -0.2716
    245  ND2       -9.1810    5.7250  -29.7150 N.am  350  ASN350     -0.0877
@<TRIPOS>BOND
     1   154   153    1
     2   153   152    1
     3   152   151    1
     4   151   150    1
     5   163   162    2
     6   146   147    1
     7   162   161    1
     8   164   161    1
     9   164   165    1
    10   150   147    1
    11   149   148    2
    12   147   148    1
    13   161   160    1
    14   170   171    2
    15   170   169    1
    16   166   165   ar
    17   148   155   am
    18   165   167   ar
    19   168   169    1
    20   160   157   am
    21   169   172    1
    22   158   157    2
    23   157   156    1
    24   155   156    1
    25   241   240    2
    26   106   105    1
    27   106   107    1
    28   106   109    1
    29   172   173    1
    30   107   108    2
    31   156   159    1
    32   110   109    1
    33   110   111    1
    34   240   239    1
    35   114   115    1
    36   173   174    2
    37   173   175   am
    38   111   113   ar
    39   111   112   ar
    40   239   242    1
    41   239   238    1
    42   115   118    1
    43   115   116    1
    44   242   243    1
    45   118   119    1
    46   232   231    2
    47   237   235   ar
    48   116   117    2
    49   234   235    1
    50   234   233    1
    51   243   244    2
    52   243   245   am
    53   235   236   ar
    54   183   181   am
    55   121   119   am
    56   119   120    2
    57   231   230    1
    58   138   139    1
    59   138   135    1
    60   139   140   ar
    61   139   141   ar
    62    60    59    1
    63   140   142   ar
    64   141   143   ar
    65   181   180    1
    66   181   182    2
    67   142   144   ar
    68   180   177    1
    69   143   144   ar
    70   230   233    1
    71   230   229    1
    72   144   145    1
    73   176   177    1
    74   136   137    2
    75   136   135    1
    76   218   217    2
    77    59    58    1
    78   135   134    1
    79   177   178    1
    80    58    57    1
    81   134   124   am
    82    17    16    2
    83   229   217   am
    84   217   216    1
    85    12    11    2
    86   122   123    1
    87    57    56    1
    88    16    15    1
    89   178   179    2
    90   124   123    1
    91   124   125    2
    92   192   190   ar
    93   192   193   ar
    94    35    32    1
    95    15    14    1
    96    15    18    1
    97    50    49    1
    98   123   126    1
    99   216   219    1
   100   216   215    1
   101    11    14   am
   102    11    10    1
   103   190   189   ar
   104   126   127    1
   105    13    10    1
   106    56    53    1
   107   219   220    1
   108    18    19    1
   109   187   186    2
   110   193   195   ar
   111   193   191   ar
   112   195   197   ar
   113   129   127   ar
   114   129   131   ar
   115    48    49    1
   116    48    45    1
   117   225   227   ar
   118   225   222   ar
   119    10     9    1
   120    32    31    1
   121    32    33    1
   122   186   185    1
   123    49    51    1
   124   127   128   ar
   125   227   228   ar
   126   189   191   ar
   127   189   188    1
   128    47    46    2
   129    53    52    1
   130    53    54    1
   131    19    21   ar
   132    19    20   ar
   133   131   132   ar
   134    46    52   am
   135    46    45    1
   136   220   222   ar
   137   220   221   ar
   138   222   224   ar
   139   191   194   ar
   140    45    44    1
   141   197   196   ar
   142     7     6    2
   143     9     3   am
   144    33    36   am
   145    33    34    2
   146    44    38   am
   147    66    65    1
   148    66    67    1
   149   188   185    1
   150   185   184    1
   151    36    37    1
   152    65    62    1
   153     8     6   am
   154   128   130   ar
   155   228   226   ar
   156    68    67   ar
   157    67    69   ar
   158     6     5    1
   159    54    55    2
   160   132   130   ar
   161   132   133    1
   162   221   223   ar
   163   194   196   ar
   164   224   226   ar
   165   224   223   ar
   166     3     4    2
   167     3     2    1
   168    38    37    1
   169    38    39    2
   170    40    37    1
   171    40    41    1
   172    30    28   am
   173    62    63    1
   174    62    61    1
   175    94    93    1
   176    43    41    1
   177     5     2    1
   178     2     1    1
   179    63    64    2
   180    22    23    1
   181    41    42    1
   182    28    29    2
   183    28    27    1
   184    93    95    1
   185    93    92    2
   186    27    26    1
   187    26    23    1
   188    91    92    1
   189    91    90    1
   190    23    24    1
   191   206   205    1
   192    84    82   ar
   193    24    25    2
   194   213   212    1
   195   213   214    1
   196   103   102   ar
   197    75    76    1
   198    75    74    1
   199   104   102   ar
   200   102   101    1
   201    76    70    1
   202    90    89    1
   203    82    83   ar
   204    82    81    1
   205   101   100    1
   206   212   211    1
   207   205   204    1
   208   100    97    1
   209    74    71    1
   210   204   203    1
   211    98    99    2
   212    98    97    1
   213    81    78    1
   214    97    96    1
   215    89    86    1
   216    70    71    1
   217   211   208    1
   218    71    72    1
   219   203   202    1
   220   208   207    1
   221   208   209    1
   222    73    72    2
   223    85    86    1
   224    85    79   am
   225    86    87    1
   226    78    79    1
   227    78    77    1
   228    79    80    2
   229   202   199    1
   230   209   210    2
   231    87    88    2
   232   199   198    1
   233   199   200    1
   234   200   201    2
