@<TRIPOS>MOLECULE
tmp/2zyoA00.pdb
 113 110 0 0 0
SMALL
GASTEIGER

@<TRIPOS>ATOM
      1  N        -17.9270    0.5280   -0.5690 N.3    71  ASP71      -0.1225
      2  CA       -16.5590    1.0580   -0.5330 C.3    71  ASP71       0.1805
      3  C        -15.9130    0.9800    0.8560 C.2    71  ASP71       0.2597
      4  O        -14.6930    1.0910    0.9840 O.2    71  ASP71      -0.2718
      5  CB       -16.4960    2.4850   -1.0970 C.3    71  ASP71       0.1424
      6  CG       -17.3750    3.4570   -0.3370 C.2    71  ASP71       0.3668
      7  OD1      -18.6140    3.3420   -0.4360 O.co2  71  ASP71      -0.2456
      8  OD2      -16.8250    4.3490    0.3440 O.co2  71  ASP71      -0.2456
      9  N        -16.7310    0.7650    1.8840 N.am   72  ARG72      -0.1979
     10  CA       -16.2330    0.6310    3.2570 C.3    72  ARG72       0.1597
     11  C        -16.2790   -0.8200    3.7530 C.2    72  ARG72       0.2287
     12  O        -16.1540   -1.0820    4.9550 O.2    72  ARG72      -0.2864
     13  CB       -16.9950    1.5660    4.2110 C.3    72  ARG72       0.0334
     14  CG       -17.0350    3.0360    3.7720 C.3    72  ARG72       0.0492
     15  CD       -15.6740    3.7110    3.8380 C.3    72  ARG72       0.2205
     16  NE       -15.6730    4.9860    3.1210 N.pl3  72  ARG72      -0.0865
     17  CZ       -14.6680    5.8580    3.1250 C.cat  72  ARG72       0.5346
     18  NH1      -13.5600    5.6120    3.8130 N.pl3  72  ARG72       0.1354
     19  NH2      -14.7750    6.9860    2.4360 N.pl3  72  ARG72       0.1354
     20  N        -25.1650    2.2380   -8.5080 N.3   117  GLU117     -0.1245
     21  CA       -25.1350    3.6190   -8.9880 C.3   117  GLU117      0.1567
     22  C        -23.8640    3.9180   -9.7800 C.2   117  GLU117      0.2260
     23  O        -22.8060    3.3420   -9.5240 O.2   117  GLU117     -0.2867
     24  CB       -25.2870    4.6120   -7.8260 C.3   117  GLU117      0.0388
     25  CG       -24.2040    4.5130   -6.7520 C.3   117  GLU117      0.1160
     26  CD       -24.3230    5.5730   -5.6660 C.2   117  GLU117      0.3649
     27  OE1      -25.4520    6.0110   -5.3600 O.co2 117  GLU117     -0.2457
     28  OE2      -23.2720    5.9530   -5.1060 O.co2 117  GLU117     -0.2457
     29  N        -18.2040   18.1700  -11.7920 N.3   158  GLU158     -0.1245
     30  CA       -17.2000   18.2580  -10.7330 C.3   158  GLU158      0.1567
     31  C        -15.8440   17.7470  -11.2070 C.2   158  GLU158      0.2260
     32  O        -15.3680   16.6960  -10.7570 O.2   158  GLU158     -0.2867
     33  CB       -17.6530   17.4790   -9.4990 C.3   158  GLU158      0.0388
     34  CG       -18.6300   18.2150   -8.6180 C.3   158  GLU158      0.1160
     35  CD       -18.7710   17.5590   -7.2620 C.2   158  GLU158      0.3649
     36  OE1      -17.7770   17.5320   -6.5040 O.co2 158  GLU158     -0.2457
     37  OE2      -19.8750   17.0700   -6.9590 O.co2 158  GLU158     -0.2457
     38  N        -12.9520   16.6360   -8.8190 N.3   161  ASN161     -0.1240
     39  CA       -13.2840   15.5360   -7.9200 C.3   161  ASN161      0.1653
     40  C        -13.0110   14.2140   -8.6270 C.2   161  ASN161      0.2266
     41  O        -13.6380   13.9110   -9.6430 O.2   161  ASN161     -0.2867
     42  CB       -14.7580   15.6420   -7.5040 C.3   161  ASN161      0.1155
     43  CG       -15.1550   14.6400   -6.4240 C.2   161  ASN161      0.2627
     44  OD1      -14.5870   13.5530   -6.3090 O.2   161  ASN161     -0.2716
     45  ND2      -16.1640   15.0030   -5.6370 N.am  161  ASN161     -0.0877
     46  N        -13.7400   11.1880   -8.0050 N.3   163  TYR163     -0.1227
     47  CA       -14.8890   10.3060   -8.1830 C.3   163  TYR163      0.1736
     48  C        -15.5150   10.5030   -9.5710 C.2   163  TYR163      0.2595
     49  O        -15.9060    9.5360  -10.2340 O.2   163  TYR163     -0.2718
     50  CB       -15.9450   10.5060   -7.0820 C.3   163  TYR163      0.0548
     51  CG       -17.1680    9.6560   -7.3370 C.ar  163  TYR163     -0.0200
     52  CD1      -17.1930    8.3130   -6.9650 C.ar  163  TYR163     -0.0009
     53  CD2      -18.2780   10.1800   -8.0020 C.ar  163  TYR163     -0.0009
     54  CE1      -18.3020    7.5160   -7.2280 C.ar  163  TYR163      0.0417
     55  CE2      -19.3920    9.3920   -8.2710 C.ar  163  TYR163      0.0417
     56  CZ       -19.3940    8.0610   -7.8830 C.ar  163  TYR163      0.1957
     57  OH       -20.4920    7.2810   -8.1530 O.3   163  TYR163     -0.2866
     58  N        -15.5940   11.7600  -10.0000 N.am  164  TYR164     -0.1976
     59  CA       -16.2360   12.1170  -11.2600 C.3   164  TYR164      0.1639
     60  C        -15.2970   11.9900  -12.4540 C.2   164  TYR164      0.2290
     61  O        -15.7180   11.5890  -13.5420 O.2   164  TYR164     -0.2864
     62  CB       -16.8200   13.5330  -11.1770 C.3   164  TYR164      0.0560
     63  CG       -17.9720   13.6380  -10.2020 C.ar  164  TYR164     -0.0198
     64  CD1      -19.2880   13.4680  -10.6300 C.ar  164  TYR164     -0.0009
     65  CD2      -17.7470   13.8870   -8.8450 C.ar  164  TYR164     -0.0009
     66  CE1      -20.3520   13.5500   -9.7380 C.ar  164  TYR164      0.0417
     67  CE2      -18.8080   13.9680   -7.9430 C.ar  164  TYR164      0.0417
     68  CZ       -20.1070   13.8030   -8.3990 C.ar  164  TYR164      0.1957
     69  OH       -21.1640   13.8840   -7.5210 O.3   164  TYR164     -0.2866
     70  N        -28.5310   10.2730   -7.8220 N.3   238  TRP238     -0.1241
     71  CA       -28.8570   11.0200   -6.6000 C.3   238  TRP238      0.1605
     72  C        -29.3390   12.4550   -6.8480 C.2   238  TRP238      0.2264
     73  O        -29.9680   13.0630   -5.9770 O.2   238  TRP238     -0.2867
     74  CB       -27.6510   11.0360   -5.6510 C.3   238  TRP238      0.0550
     75  CG       -26.3670   11.4660   -6.3100 C.ar  238  TRP238      0.0003
     76  CD1      -25.9620   12.7460   -6.5690 C.ar  238  TRP238      0.0946
     77  CD2      -25.3240   10.6100   -6.7930 C.ar  238  TRP238      0.0152
     78  NE1      -24.7330   12.7400   -7.1890 N.ar  238  TRP238     -0.2442
     79  CE2      -24.3180   11.4420   -7.3360 C.ar  238  TRP238      0.0810
     80  CE3      -25.1410    9.2210   -6.8200 C.ar  238  TRP238      0.0012
     81  CZ2      -23.1450   10.9300   -7.8990 C.ar  238  TRP238      0.0191
     82  CZ3      -23.9730    8.7100   -7.3820 C.ar  238  TRP238      0.0001
     83  CH2      -22.9910    9.5650   -7.9130 C.ar  238  TRP238      0.0015
     84  N        -15.7810    0.7800   -7.0080 N.3   338  MET338     -0.1245
     85  CA       -14.8780    1.5840   -6.1960 C.3   338  MET338      0.1570
     86  C        -14.0750    0.6430   -5.3040 C.2   338  MET338      0.2261
     87  O        -14.6440   -0.2870   -4.7240 O.2   338  MET338     -0.2867
     88  CB       -15.6500    2.5730   -5.3300 C.3   338  MET338      0.0387
     89  CG       -16.0350    3.8520   -6.0400 C.3   338  MET338      0.0595
     90  SD       -16.8870    5.0020   -4.9540 S.3   338  MET338     -0.1393
     91  CE       -18.4020    4.1130   -4.6710 C.3   338  MET338      0.0692
     92  N         -8.8030    9.7920   -1.3520 N.3   348  TRP348     -0.1241
     93  CA        -9.6910   10.8590   -1.8290 C.3   348  TRP348      0.1605
     94  C         -9.1580   12.2720   -1.5900 C.2   348  TRP348      0.2264
     95  O         -9.1010   13.0740   -2.5220 O.2   348  TRP348     -0.2867
     96  CB       -11.0960   10.7220   -1.2290 C.3   348  TRP348      0.0550
     97  CG       -11.7760    9.4230   -1.5400 C.ar  348  TRP348      0.0003
     98  CD1      -12.0200    8.4010   -0.6710 C.ar  348  TRP348      0.0946
     99  CD2      -12.2980    9.0030   -2.8090 C.ar  348  TRP348      0.0152
    100  NE1      -12.6650    7.3710   -1.3130 N.ar  348  TRP348     -0.2442
    101  CE2      -12.8460    7.7130   -2.6280 C.ar  348  TRP348      0.0810
    102  CE3      -12.3560    9.5910   -4.0810 C.ar  348  TRP348      0.0012
    103  CZ2      -13.4490    6.9980   -3.6710 C.ar  348  TRP348      0.0191
    104  CZ3      -12.9540    8.8790   -5.1190 C.ar  348  TRP348      0.0001
    105  CH2      -13.4920    7.5960   -4.9060 C.ar  348  TRP348      0.0015
    106  N         -7.9780   14.6450   -4.7210 N.3   352  ASN352     -0.1240
    107  CA        -8.8580   15.7800   -4.9960 C.3   352  ASN352      0.1653
    108  C         -8.1260   17.1080   -4.8580 C.2   352  ASN352      0.2266
    109  O         -8.3460   18.0250   -5.6500 O.2   352  ASN352     -0.2867
    110  CB       -10.1070   15.7410   -4.1120 C.3   352  ASN352      0.1155
    111  CG       -11.0340   14.5900   -4.4620 C.2   352  ASN352      0.2627
    112  OD1      -10.9930   14.0570   -5.5740 O.2   352  ASN352     -0.2716
    113  ND2      -11.8740   14.1970   -3.5100 N.am  352  ASN352     -0.0877
@<TRIPOS>BOND
     1    61    60    2
     2    60    59    1
     3    29    30    1
     4    59    62    1
     5    59    58    1
     6    31    32    2
     7    31    30    1
     8    62    63    1
     9    30    33    1
    10    64    63   ar
    11    64    66   ar
    12    49    48    2
    13    63    65   ar
    14    58    48   am
    15    22    23    2
    16    22    21    1
    17    66    68   ar
    18    41    40    2
    19    48    47    1
    20    33    34    1
    21    21    20    1
    22    21    24    1
    23    65    67   ar
    24    38    39    1
    25    40    39    1
    26    34    35    1
    27    68    67   ar
    28    68    69    1
    29    55    53   ar
    30    55    56   ar
    31    47    46    1
    32    47    50    1
    33    57    56    1
    34    53    51   ar
    35    39    42    1
    36    83    81   ar
    37    83    82   ar
    38    81    79   ar
    39    56    54   ar
    40    24    25    1
    41    70    71    1
    42    42    43    1
    43    82    80   ar
    44    51    50    1
    45    51    52   ar
    46    79    78   ar
    47    79    77   ar
    48    35    37   ar
    49    35    36   ar
    50    54    52   ar
    51    78    76   ar
    52    84    85    1
    53    72    71    1
    54    72    73    2
    55    80    77   ar
    56    77    75   ar
    57    25    26    1
    58    71    74    1
    59    76    75   ar
    60    43    44    2
    61    43    45   am
    62    75    74    1
    63    85    88    1
    64    85    86    1
    65    89    88    1
    66    89    90    1
    67    26    27   ar
    68    26    28   ar
    69   109   108    2
    70   112   111    2
    71    86    87    2
    72   104   105   ar
    73   104   102   ar
    74   107   108    1
    75   107   106    1
    76   107   110    1
    77    90    91    1
    78   105   103   ar
    79   111   110    1
    80   111   113   am
    81   102    99   ar
    82   103   101   ar
    83    99   101   ar
    84    99    97   ar
    85   101   100   ar
    86    95    94    2
    87    93    94    1
    88    93    92    1
    89    93    96    1
    90    97    96    1
    91    97    98   ar
    92   100    98   ar
    93     5     2    1
    94     5     6    1
    95     1     2    1
    96     2     3    1
    97     7     6   ar
    98     6     8   ar
    99     3     4    2
   100     3     9   am
   101     9    10    1
   102    19    17    1
   103    16    17    2
   104    16    15    1
   105    17    18    1
   106    10    11    1
   107    10    13    1
   108    11    12    2
   109    14    15    1
   110    14    13    1
