@<TRIPOS>MOLECULE
tmp/2zyrA00.pdb
 216 209 0 0 0
SMALL
GASTEIGER

@<TRIPOS>ATOM
      1  N         30.4890   46.6280   93.9200 N.3    10  GLY10      -0.1210
      2  CA        29.8620   47.0960   92.6970 C.3    10  GLY10       0.1956
      3  C         29.8440   48.6290   92.5700 C.2    10  GLY10       0.2612
      4  O         30.5180   49.3240   93.3220 O.2    10  GLY10      -0.2717
      5  N         29.0450   49.1370   91.6400 N.am   11  LEU11      -0.1965
      6  CA        28.9260   50.5890   91.4190 C.3    11  LEU11       0.1728
      7  C         28.3820   51.3020   92.6400 C.2    11  LEU11       0.2616
      8  O         27.3350   50.8810   93.1990 O.2    11  LEU11      -0.2715
      9  CB        28.0090   50.8310   90.2380 C.3    11  LEU11       0.0311
     10  CG        27.7510   52.2060   89.5860 C.3    11  LEU11       0.0022
     11  CD1       26.8280   53.0040   90.4710 C.3    11  LEU11       0.0001
     12  CD2       29.0550   52.9290   89.2730 C.3    11  LEU11       0.0001
     13  N         29.0650   52.3910   93.0300 N.am   12  ALA12      -0.1963
     14  CA        28.7040   53.1450   94.2280 C.3    12  ALA12       0.1728
     15  C         28.7860   52.2950   95.5190 C.2    12  ALA12       0.2616
     16  O         28.1890   52.6270   96.5340 O.2    12  ALA12      -0.2715
     17  CB        27.2420   53.7920   94.0760 C.3    12  ALA12       0.0334
     18  N         29.5920   51.2460   95.4750 N.am   13  GLY13      -0.1955
     19  CA        29.7560   50.3500   96.6090 C.3    13  GLY13       0.1869
     20  C         31.1250   50.5520   97.2500 C.2    13  GLY13       0.2309
     21  O         31.9060   51.4310   96.7990 O.2    13  GLY13      -0.2863
     22  N         29.9840   46.6270  101.8590 N.3    17  GLN17      -0.1245
     23  CA        29.0650   45.5050  101.5570 C.3    17  GLN17       0.1566
     24  C         29.6400   44.1720  101.9860 C.2    17  GLN17       0.2260
     25  O         28.9510   43.1610  101.9040 O.2    17  GLN17      -0.2867
     26  CB        28.6390   45.4310  100.0850 C.3    17  GLN17       0.0367
     27  CG        27.6580   46.5140   99.6760 C.3    17  GLN17       0.0905
     28  CD        28.3340   47.8960   99.4730 C.2    17  GLN17       0.2608
     29  OE1       28.0800   48.9270  100.2550 O.2    17  GLN17      -0.2717
     30  NE2       29.1650   47.9570   98.4500 N.am   17  GLN17      -0.0878
     31  N         30.3910   41.5880   93.7100 N.3   115  HIS115     -0.1226
     32  CA        28.9700   41.9310   93.8100 C.3   115  HIS115      0.1752
     33  C         28.5940   42.9300   92.7050 C.2   115  HIS115      0.2596
     34  O         29.2720   43.9360   92.4720 O.2   115  HIS115     -0.2718
     35  CB        28.6490   42.5750   95.1690 C.3   115  HIS115      0.0759
     36  CG        27.2040   43.0250   95.2770 C.ar  115  HIS115      0.0818
     37  ND1       26.8470   44.2750   95.7300 N.ar  115  HIS115     -0.2268
     38  CD2       26.0390   42.3590   95.0350 C.ar  115  HIS115      0.1154
     39  CE1       25.5170   44.3640   95.7650 C.ar  115  HIS115      0.1986
     40  NE2       25.0000   43.2180   95.3470 N.ar  115  HIS115     -0.2212
     41  N         27.5090   42.6090   91.9870 N.am  116  SER116     -0.1952
     42  CA        26.9630   43.5220   90.9930 C.3   116  SER116      0.1924
     43  C         28.0310   43.9350   89.9370 C.2   116  SER116      0.2314
     44  O         28.5630   43.0660   89.2540 O.2   116  SER116     -0.2863
     45  CB        26.3840   44.7240   91.7620 C.3   116  SER116      0.2116
     46  OG        25.4890   45.4710   90.9110 O.3   116  SER116     -0.2180
     47  N         18.8130   43.3110   95.8280 N.3   190  HIS190     -0.1226
     48  CA        20.2020   43.4520   95.3470 C.3   190  HIS190      0.1752
     49  C         21.3810   43.5070   96.3090 C.2   190  HIS190      0.2595
     50  O         22.3250   42.6760   96.1740 O.2   190  HIS190     -0.2718
     51  CB        20.2630   44.6310   94.3480 C.3   190  HIS190      0.0759
     52  CG        21.5260   44.6680   93.5160 C.ar  190  HIS190      0.0818
     53  ND1       21.9140   43.6320   92.6850 N.ar  190  HIS190     -0.2268
     54  CD2       22.4500   45.6500   93.3450 C.ar  190  HIS190      0.1154
     55  CE1       23.0130   43.9790   92.0250 C.ar  190  HIS190      0.1986
     56  NE2       23.3610   45.1940   92.4080 N.ar  190  HIS190     -0.2212
     57  N         21.3750   44.4880   97.2140 N.am  191  VAL191     -0.1980
     58  CA        22.4730   44.6150   98.1680 C.3   191  VAL191      0.1595
     59  C         22.2330   43.6550   99.3330 C.2   191  VAL191      0.2287
     60  O         23.1670   43.0430   99.8660 O.2   191  VAL191     -0.2864
     61  CB        22.6490   46.0970   98.6530 C.3   191  VAL191      0.0276
     62  CG1       23.8520   46.2560   99.6450 C.3   191  VAL191      0.0022
     63  CG2       22.9090   47.0020   97.4280 C.3   191  VAL191      0.0022
     64  N         32.3040   58.8520   98.4000 N.3   234  PHE234     -0.1241
     65  CA        31.2610   57.9850   97.8560 C.3   234  PHE234      0.1605
     66  C         31.4610   57.7500   96.3620 C.2   234  PHE234      0.2264
     67  O         31.6910   58.7030   95.5620 O.2   234  PHE234     -0.2867
     68  CB        29.9020   58.6860   98.0830 C.3   234  PHE234      0.0534
     69  CG        28.7360   58.0030   97.4090 C.ar  234  PHE234     -0.0203
     70  CD1       28.3370   56.7310   97.8080 C.ar  234  PHE234     -0.0042
     71  CD2       28.0640   58.6470   96.4040 C.ar  234  PHE234     -0.0042
     72  CE1       27.2020   56.0880   97.1570 C.ar  234  PHE234     -0.0003
     73  CE2       26.9710   58.0420   95.7700 C.ar  234  PHE234     -0.0003
     74  CZ        26.5450   56.7820   96.1430 C.ar  234  PHE234     -0.0000
     75  N         30.1110   66.4710  110.3770 N.3   293  TYR293     -0.1241
     76  CA        29.4190   65.1770  110.1560 C.3   293  TYR293      0.1605
     77  C         29.3640   64.3360  111.4040 C.2   293  TYR293      0.2264
     78  O         30.3510   64.2190  112.1520 O.2   293  TYR293     -0.2867
     79  CB        30.1250   64.4130  109.0190 C.3   293  TYR293      0.0534
     80  CG        30.0780   65.1910  107.7470 C.ar  293  TYR293     -0.0201
     81  CD1       31.0450   66.1820  107.4510 C.ar  293  TYR293     -0.0009
     82  CD2       29.0210   65.0210  106.8560 C.ar  293  TYR293     -0.0009
     83  CE1       30.9310   66.9760  106.3130 C.ar  293  TYR293      0.0417
     84  CE2       28.9060   65.8110  105.7030 C.ar  293  TYR293      0.0417
     85  CZ        29.8540   66.7890  105.4430 C.ar  293  TYR293      0.1957
     86  OH        29.6680   67.5820  104.3280 O.3   293  TYR293     -0.2866
     87  N         28.3700   60.5630  112.4690 N.3   295  TYR295     -0.1241
     88  CA        28.0530   59.2420  112.0560 C.3   295  TYR295      0.1605
     89  C         27.6730   58.3860  113.2440 C.2   295  TYR295      0.2264
     90  O         28.4080   58.2730  114.2280 O.2   295  TYR295     -0.2867
     91  CB        29.2600   58.5730  111.3560 C.3   295  TYR295      0.0534
     92  CG        29.6380   59.2080  110.0440 C.ar  295  TYR295     -0.0201
     93  CD1       29.2310   58.6320  108.8350 C.ar  295  TYR295     -0.0009
     94  CD2       30.4830   60.3630  110.0060 C.ar  295  TYR295     -0.0009
     95  CE1       29.6530   59.1710  107.5700 C.ar  295  TYR295      0.0417
     96  CE2       30.8850   60.8900  108.7910 C.ar  295  TYR295      0.0417
     97  CZ        30.4710   60.2900  107.5920 C.ar  295  TYR295      0.1957
     98  OH        30.8540   60.8600  106.4190 O.3   295  TYR295     -0.2866
     99  N         31.2590   56.9940  104.4480 N.3   310  LEU310     -0.1231
    100  CA        31.1710   57.6440  103.1380 C.3   310  LEU310      0.1693
    101  C         31.0950   59.1290  103.2280 C.2   310  LEU310      0.2592
    102  O         30.3410   59.6610  104.0550 O.2   310  LEU310     -0.2718
    103  CB        29.9400   57.1160  102.3850 C.3   310  LEU310      0.0284
    104  CG        29.8700   55.5920  102.2650 C.3   310  LEU310      0.0019
    105  CD1       28.4460   55.2270  101.6360 C.3   310  LEU310      0.0001
    106  CD2       31.0690   55.0700  101.4550 C.3   310  LEU310      0.0001
    107  N         31.8120   59.7840  102.3130 N.am  311  VAL311     -0.1966
    108  CA        31.8890   61.2270  102.3080 C.3   311  VAL311      0.1727
    109  C         31.5920   61.7490  100.9130 C.2   311  VAL311      0.2616
    110  O         32.0920   61.2260   99.9400 O.2   311  VAL311     -0.2715
    111  CB        33.3460   61.6590  102.7140 C.3   311  VAL311      0.0290
    112  CG1       33.4500   63.2170  102.6360 C.3   311  VAL311      0.0023
    113  CG2       33.7090   61.0920  104.1030 C.3   311  VAL311      0.0023
    114  N         30.7670   62.7830  100.7980 N.am  312  SER312     -0.1950
    115  CA        30.4760   63.3280   99.5000 C.3   312  SER312      0.1924
    116  C         31.6530   64.2210   99.0210 C.2   312  SER312      0.2314
    117  O         32.0620   65.1640   99.7270 O.2   312  SER312     -0.2863
    118  CB        29.1890   64.1660   99.5820 C.3   312  SER312      0.2116
    119  OG        28.7350   64.5250   98.2590 O.3   312  SER312     -0.2180
    120  N         27.2750   64.1690   95.6700 N.3   318  VAL318     -0.1231
    121  CA        25.8310   63.9730   95.8680 C.3   318  VAL318      0.1692
    122  C         25.1750   64.8740   96.9420 C.2   318  VAL318      0.2591
    123  O         23.9770   65.2290   96.8570 O.2   318  VAL318     -0.2718
    124  CB        25.5760   62.4870   96.1860 C.3   318  VAL318      0.0266
    125  CG1       26.3000   62.0840   97.4750 C.3   318  VAL318      0.0020
    126  CG2       24.0730   62.2330   96.2720 C.3   318  VAL318      0.0020
    127  N         25.9470   65.2460   97.9480 N.am  319  GLU319     -0.1979
    128  CA        25.4530   66.1160   99.0030 C.3   319  GLU319      0.1602
    129  C         25.0150   67.4650   98.4370 C.2   319  GLU319      0.2287
    130  O         24.2040   68.1160   99.0590 O.2   319  GLU319     -0.2864
    131  CB        26.5320   66.3540  100.0660 C.3   319  GLU319      0.0415
    132  CG        26.0330   66.1300  101.4890 C.3   319  GLU319      0.1163
    133  CD        27.1860   66.1800  102.5050 C.2   319  GLU319      0.3649
    134  OE1       27.5900   67.3020  102.8780 O.co2 319  GLU319     -0.2457
    135  OE2       27.6720   65.0760  102.8930 O.co2 319  GLU319     -0.2457
    136  N         20.7260   61.1550  106.7280 N.3   338  LEU338     -0.1245
    137  CA        20.9280   60.1910  105.6470 C.3   338  LEU338      0.1561
    138  C         20.9000   58.8670  106.4320 C.2   338  LEU338      0.2260
    139  O         21.7100   58.6480  107.3500 O.2   338  LEU338     -0.2867
    140  CB        22.2960   60.3620  104.9580 C.3   338  LEU338      0.0270
    141  CG        22.6760   59.1450  104.0920 C.3   338  LEU338      0.0019
    142  CD1       21.5740   58.8840  102.9720 C.3   338  LEU338      0.0001
    143  CD2       24.0070   59.4390  103.3920 C.3   338  LEU338      0.0001
    144  N         21.3040   54.8790  106.2210 N.3   340  ILE340     -0.1245
    145  CA        21.9090   53.8840  105.3490 C.3   340  ILE340      0.1561
    146  C         21.7160   52.4730  105.8710 C.2   340  ILE340      0.2260
    147  O         21.8430   52.2220  107.0800 O.2   340  ILE340     -0.2867
    148  CB        23.4660   54.1040  105.2710 C.3   340  ILE340      0.0252
    149  CG1       23.7560   55.5010  104.6760 C.3   340  ILE340      0.0019
    150  CG2       24.0800   53.0060  104.3000 C.3   340  ILE340      0.0019
    151  CD1       25.3450   55.8320  104.6360 C.3   340  ILE340      0.0001
    152  N         22.6660   48.4580  104.1760 N.3   342  TYR342     -0.1241
    153  CA        23.0930   47.6920  103.0000 C.3   342  TYR342      0.1605
    154  C         22.2050   46.4630  102.8800 C.2   342  TYR342      0.2264
    155  O         22.6450   45.3350  102.9610 O.2   342  TYR342     -0.2867
    156  CB        24.5680   47.2850  103.1790 C.3   342  TYR342      0.0534
    157  CG        25.4790   48.4860  103.1720 C.ar  342  TYR342     -0.0201
    158  CD1       25.2580   49.4920  102.2740 C.ar  342  TYR342     -0.0009
    159  CD2       26.5550   48.5950  104.0610 C.ar  342  TYR342     -0.0009
    160  CE1       26.0960   50.6270  102.2200 C.ar  342  TYR342      0.0417
    161  CE2       27.4170   49.7420  104.0120 C.ar  342  TYR342      0.0417
    162  CZ        27.1620   50.7290  103.0820 C.ar  342  TYR342      0.1957
    163  OH        28.0040   51.8520  102.9840 O.3   342  TYR342     -0.2866
    164  N         19.0180   51.9480   99.5220 N.3   379  ASN379     -0.1225
    165  CA        20.0180   51.6540  100.5310 C.3   379  ASN379      0.1785
    166  C         20.3700   52.9820  101.3020 C.2   379  ASN379      0.2597
    167  O         20.8980   52.9660  102.4190 O.2   379  ASN379     -0.2718
    168  CB        21.2940   51.1190   99.8720 C.3   379  ASN379      0.1169
    169  CG        21.2010   49.6980   99.4400 C.2   379  ASN379      0.2627
    170  OD1       20.3810   49.3140   98.5410 O.2   379  ASN379     -0.2716
    171  ND2       22.0700   48.8790  100.0220 N.am  379  ASN379     -0.0877
    172  N         20.0750   54.1250  100.6710 N.am  380  GLY380     -0.1957
    173  CA        20.3350   55.3850  101.3010 C.3   380  GLY380      0.1869
    174  C         19.0740   56.2480  101.1680 C.2   380  GLY380      0.2309
    175  O         18.6600   56.5780  100.0620 O.2   380  GLY380     -0.2863
    176  N         17.5150   59.8560  102.2210 N.3   382  TRP382     -0.1241
    177  CA        17.7650   61.1890  102.7090 C.3   382  TRP382      0.1605
    178  C         16.4450   61.6800  103.3360 C.2   382  TRP382      0.2264
    179  O         15.4110   61.5730  102.6690 O.2   382  TRP382     -0.2867
    180  CB        18.1110   62.1060  101.5330 C.3   382  TRP382      0.0550
    181  CG        19.3880   61.6730  100.8130 C.ar  382  TRP382      0.0003
    182  CD1       19.5100   60.6880   99.8910 C.ar  382  TRP382      0.0946
    183  CD2       20.7230   62.1840  101.0310 C.ar  382  TRP382      0.0152
    184  NE1       20.8400   60.5550   99.5090 N.ar  382  TRP382     -0.2442
    185  CE2       21.5880   61.4650  100.1990 C.ar  382  TRP382      0.0810
    186  CE3       21.2470   63.1730  101.8590 C.ar  382  TRP382      0.0012
    187  CZ2       22.9740   61.7100  100.1570 C.ar  382  TRP382      0.0191
    188  CZ3       22.6140   63.4260  101.8300 C.ar  382  TRP382      0.0001
    189  CH2       23.4630   62.6870  100.9690 C.ar  382  TRP382      0.0015
    190  N         20.1110   53.4080   94.0630 N.3   406  PHE406     -0.1227
    191  CA        20.0610   53.0200   95.4560 C.3   406  PHE406      0.1736
    192  C         19.6820   54.1020   96.4510 C.2   406  PHE406      0.2595
    193  O         19.9090   53.9280   97.6410 O.2   406  PHE406     -0.2718
    194  CB        21.4420   52.4200   95.8500 C.3   406  PHE406      0.0547
    195  CG        21.9550   51.4200   94.8540 C.ar  406  PHE406     -0.0202
    196  CD1       21.2520   50.2510   94.6140 C.ar  406  PHE406     -0.0042
    197  CD2       23.1240   51.6660   94.1350 C.ar  406  PHE406     -0.0042
    198  CE1       21.7090   49.3110   93.6480 C.ar  406  PHE406     -0.0003
    199  CE2       23.5850   50.7500   93.1750 C.ar  406  PHE406     -0.0003
    200  CZ        22.8950   49.5880   92.9300 C.ar  406  PHE406     -0.0000
    201  N         19.1090   55.2290   96.0050 N.am  407  MET407     -0.1979
    202  CA        18.7690   56.2340   96.9990 C.3   407  MET407      0.1605
    203  C         17.3350   56.7550   96.7750 C.2   407  MET407      0.2287
    204  O         16.8020   56.7010   95.6500 O.2   407  MET407     -0.2864
    205  CB        19.6980   57.4770   96.8520 C.3   407  MET407      0.0413
    206  CG        21.1190   57.2700   97.2710 C.3   407  MET407      0.0598
    207  SD        21.9560   58.7810   96.6410 S.3   407  MET407     -0.1393
    208  CE        23.2850   57.9130   95.8080 C.3   407  MET407      0.0692
    209  N         24.4760   61.0900  109.7380 N.3   447  ILE447     -0.1245
    210  CA        24.4280   59.8500  108.9760 C.3   447  ILE447      0.1561
    211  C         24.1900   58.7050  109.9640 C.2   447  ILE447      0.2260
    212  O         24.9500   58.5250  110.8940 O.2   447  ILE447     -0.2867
    213  CB        25.7460   59.5490  108.2510 C.3   447  ILE447      0.0252
    214  CG1       26.1100   60.6890  107.2890 C.3   447  ILE447      0.0019
    215  CG2       25.5780   58.2440  107.4140 C.3   447  ILE447      0.0019
    216  CD1       26.7330   61.8860  108.0280 C.3   447  ILE447      0.0001
@<TRIPOS>BOND
     1    44    43    2
     2    12    10    1
     3    10     9    1
     4    10    11    1
     5    43    42    1
     6     9     6    1
     7    46    45    1
     8    42    45    1
     9    42    41    1
    10     6     5    1
    11     6     7    1
    12     5     3   am
    13    41    33   am
    14    55    56   ar
    15    55    53   ar
    16    56    54   ar
    17    34    33    2
    18     3     2    1
    19     3     4    2
    20     7    13   am
    21     7     8    2
    22    53    52   ar
    23     2     1    1
    24    33    32    1
    25   200   199   ar
    26   200   198   ar
    27    13    14    1
    28   199   197   ar
    29    54    52   ar
    30    52    51    1
    31   198   196   ar
    32    31    32    1
    33    32    35    1
    34   190   191    1
    35    17    14    1
    36   197   195   ar
    37    14    15    1
    38    51    48    1
    39   196   195   ar
    40   195   194    1
    41    38    36   ar
    42    38    40   ar
    43    35    36    1
    44    36    37   ar
    45    40    39   ar
    46    48    47    1
    47    48    49    1
    48   191   194    1
    49   191   192    1
    50    18    15   am
    51    18    19    1
    52    15    16    2
    53    67    66    2
    54   204   203    2
    55   120   121    1
    56    37    39   ar
    57    73    74   ar
    58    73    71   ar
    59   208   207    1
    60   121   124    1
    61   121   122    1
    62   201   192   am
    63   201   202    1
    64    74    72   ar
    65    50    49    2
    66   124   126    1
    67   124   125    1
    68    49    57   am
    69    66    65    1
    70    71    69   ar
    71   192   193    2
    72    19    20    1
    73   207   206    1
    74   203   202    1
    75    21    20    2
    76   205   202    1
    77   205   206    1
    78   123   122    2
    79   122   127   am
    80    72    70   ar
    81    57    58    1
    82    69    70   ar
    83    69    68    1
    84    63    61    1
    85    65    68    1
    86    65    64    1
    87   127   128    1
    88    58    61    1
    89    58    59    1
    90   119   118    1
    91   129   128    1
    92   129   130    2
    93    30    28   am
    94   170   169    2
    95    61    62    1
    96   128   131    1
    97   116   115    1
    98   116   117    2
    99    59    60    2
   100   169   168    1
   101   169   171   am
   102    28    27    1
   103    28    29    2
   104   115   118    1
   105   115   114    1
   106   184   182   ar
   107   184   185   ar
   108   164   165    1
   109    27    26    1
   110   168   165    1
   111   182   181   ar
   112   110   109    2
   113   175   174    2
   114   131   132    1
   115    26    23    1
   116   187   185   ar
   117   187   189   ar
   118   185   183   ar
   119   165   166    1
   120   172   173    1
   121   172   166   am
   122   114   109   am
   123   181   183   ar
   124   181   180    1
   125   109   108    1
   126   189   188   ar
   127   183   186   ar
   128   174   173    1
   129   166   167    2
   130   106   104    1
   131   132   133    1
   132   180   177    1
   133    23    22    1
   134    23    24    1
   135   105   104    1
   136   188   186   ar
   137    25    24    2
   138   160   158   ar
   139   160   162   ar
   140   176   177    1
   141   104   103    1
   142   158   157   ar
   143   108   107    1
   144   108   111    1
   145   107   101   am
   146   103   100    1
   147   133   134   ar
   148   133   135   ar
   149   112   111    1
   150   179   178    2
   151   177   178    1
   152   111   113    1
   153   154   155    2
   154   154   153    1
   155   142   141    1
   156   163   162    1
   157   153   156    1
   158   153   152    1
   159   162   161   ar
   160   100   101    1
   161   100    99    1
   162   157   156    1
   163   157   159   ar
   164   101   102    2
   165   143   141    1
   166   161   159   ar
   167   141   140    1
   168   150   148    1
   169    86    85    1
   170   151   149    1
   171   149   148    1
   172   140   137    1
   173   148   145    1
   174   145   146    1
   175   145   144    1
   176    85    84   ar
   177    85    83   ar
   178   137   138    1
   179   137   136    1
   180    84    82   ar
   181   146   147    2
   182    83    81   ar
   183    98    97    1
   184   138   139    2
   185    82    80   ar
   186   214   216    1
   187   214   213    1
   188   215   213    1
   189    81    80   ar
   190    95    97   ar
   191    95    93   ar
   192    97    96   ar
   193    80    79    1
   194   213   210    1
   195    96    94   ar
   196    93    92   ar
   197   210   209    1
   198   210   211    1
   199    79    76    1
   200   211   212    2
   201    94    92   ar
   202    92    91    1
   203    76    75    1
   204    76    77    1
   205    91    88    1
   206    77    78    2
   207    88    87    1
   208    88    89    1
   209    89    90    2
