@<TRIPOS>MOLECULE
tmp/2zyrB00.pdb
 183 176 0 0 0
SMALL
GASTEIGER

@<TRIPOS>ATOM
      1  N         18.9220   74.5150   54.9370 N.3    10  GLY10      -0.1210
      2  CA        18.4610   75.8330   55.3150 C.3    10  GLY10       0.1956
      3  C         18.2180   76.0270   56.7940 C.2    10  GLY10       0.2612
      4  O         18.7290   75.2810   57.6320 O.2    10  GLY10      -0.2717
      5  N         17.3940   77.0310   57.1260 N.am   11  LEU11      -0.1965
      6  CA        17.1220   77.3940   58.5190 C.3    11  LEU11       0.1728
      7  C         16.4510   76.2210   59.2640 C.2    11  LEU11       0.2616
      8  O         15.4840   75.6080   58.7430 O.2    11  LEU11      -0.2715
      9  CB        16.2120   78.6790   58.4990 C.3    11  LEU11       0.0311
     10  CG        15.8670   79.4460   59.8110 C.3    11  LEU11       0.0022
     11  CD1       14.9090   78.6540   60.6660 C.3    11  LEU11       0.0001
     12  CD2       17.0750   79.7080   60.6650 C.3    11  LEU11       0.0001
     13  N         16.9970   75.8570   60.4280 N.am   12  ALA12      -0.1963
     14  CA        16.4770   74.7490   61.2370 C.3    12  ALA12       0.1728
     15  C         16.5440   73.3950   60.4690 C.2    12  ALA12       0.2616
     16  O         15.8560   72.4420   60.8220 O.2    12  ALA12      -0.2715
     17  CB        15.0040   75.0540   61.6270 C.3    12  ALA12       0.0334
     18  N         17.4230   73.2990   59.4640 N.am   13  GLY13      -0.1955
     19  CA        17.4780   72.0710   58.6940 C.3    13  GLY13       0.1869
     20  C         18.7790   71.3210   59.0170 C.2    13  GLY13       0.2309
     21  O         19.5450   71.7470   59.9060 O.2    13  GLY13      -0.2863
     22  N         17.6070   66.5400   55.1850 N.3    17  GLN17      -0.1245
     23  CA        16.8370   66.9500   53.9930 C.3    17  GLN17       0.1566
     24  C         17.4730   66.4440   52.7300 C.2    17  GLN17       0.2260
     25  O         16.9170   66.6150   51.6630 O.2    17  GLN17      -0.2867
     26  CB        16.6240   68.4390   53.8750 C.3    17  GLN17       0.0367
     27  CG        15.5390   68.9400   54.8350 C.3    17  GLN17       0.0905
     28  CD        16.0790   69.1780   56.2080 C.2    17  GLN17       0.2608
     29  OE1       15.7460   68.4440   57.1950 O.2    17  GLN17      -0.2717
     30  NE2       16.9040   70.1900   56.3070 N.am   17  GLN17      -0.0878
     31  N         19.3540   74.4740   49.8710 N.3   115  HIS115     -0.1241
     32  CA        17.8900   74.5390   50.0860 C.3   115  HIS115      0.1621
     33  C         17.5550   75.7240   51.0000 C.2   115  HIS115      0.2264
     34  O         18.1750   75.9420   52.0610 O.2   115  HIS115     -0.2867
     35  CB        17.3880   73.2610   50.7720 C.3   115  HIS115      0.0745
     36  CG        15.9090   73.2890   51.0400 C.ar  115  HIS115      0.0817
     37  ND1       15.3600   72.9810   52.2730 N.ar  115  HIS115     -0.2268
     38  CD2       14.8640   73.5390   50.2120 C.ar  115  HIS115      0.1154
     39  CE1       14.0380   73.0440   52.1920 C.ar  115  HIS115      0.1986
     40  NE2       13.7120   73.3750   50.9510 N.ar  115  HIS115     -0.2212
     41  N          9.8350   71.8490   52.0080 N.3   191  VAL191     -0.1245
     42  CA        10.8010   70.7950   52.2400 C.3   191  VAL191      0.1561
     43  C         10.5070   69.6450   51.3080 C.2   191  VAL191      0.2260
     44  O         11.4170   68.9590   50.8150 O.2   191  VAL191     -0.2867
     45  CB        10.7590   70.3470   53.7070 C.3   191  VAL191      0.0252
     46  CG1       11.8950   69.2580   54.0010 C.3   191  VAL191      0.0019
     47  CG2       10.9290   71.6010   54.5970 C.3   191  VAL191      0.0019
     48  N         19.1260   70.5590   67.4050 N.3   234  PHE234     -0.1241
     49  CA        18.2230   71.1700   66.4590 C.3   234  PHE234      0.1605
     50  C         18.5860   72.6360   66.1510 C.2   234  PHE234      0.2264
     51  O         18.7890   73.4560   67.0580 O.2   234  PHE234     -0.2867
     52  CB        16.7800   71.0850   67.0250 C.3   234  PHE234      0.0534
     53  CG        15.7740   71.8050   66.1810 C.ar  234  PHE234     -0.0203
     54  CD1       15.5200   71.3930   64.8840 C.ar  234  PHE234     -0.0042
     55  CD2       15.0820   72.9190   66.7050 C.ar  234  PHE234     -0.0042
     56  CE1       14.5810   72.0610   64.0730 C.ar  234  PHE234     -0.0003
     57  CE2       14.1180   73.6070   65.9160 C.ar  234  PHE234     -0.0003
     58  CZ        13.8630   73.1840   64.6000 C.ar  234  PHE234     -0.0000
     59  N         17.8300   64.3480   65.8070 N.3   310  LEU310     -0.1231
     60  CA        17.7960   65.6860   66.3520 C.3   310  LEU310      0.1693
     61  C         17.5840   65.7150   67.8370 C.2   310  LEU310      0.2592
     62  O         16.7380   65.0010   68.3490 O.2   310  LEU310     -0.2718
     63  CB        16.6770   66.4870   65.6690 C.3   310  LEU310      0.0284
     64  CG        16.8770   66.6330   64.1460 C.3   310  LEU310      0.0019
     65  CD1       15.5860   67.2870   63.5040 C.3   310  LEU310      0.0001
     66  CD2       18.1190   67.4920   63.9080 C.3   310  LEU310      0.0001
     67  N         18.3250   66.6010   68.4990 N.am  311  VAL311     -0.1966
     68  CA        18.2660   66.7350   69.9350 C.3   311  VAL311      0.1727
     69  C         17.9930   68.1710   70.3060 C.2   311  VAL311      0.2616
     70  O         18.4750   69.0780   69.6690 O.2   311  VAL311     -0.2715
     71  CB        19.6210   66.3250   70.5790 C.3   311  VAL311      0.0290
     72  CG1       19.5280   66.4290   72.0800 C.3   311  VAL311      0.0023
     73  CG2       20.0080   64.9110   70.1110 C.3   311  VAL311      0.0023
     74  N         17.2510   68.3800   71.3690 N.am  312  SER312     -0.1950
     75  CA        16.9440   69.7430   71.8070 C.3   312  SER312      0.1924
     76  C         18.0300   70.3010   72.7270 C.2   312  SER312      0.2314
     77  O         18.4180   69.6490   73.7160 O.2   312  SER312     -0.2863
     78  CB        15.5980   69.7340   72.5310 C.3   312  SER312      0.2116
     79  OG        15.2390   71.0590   72.8270 O.3   312  SER312     -0.2180
     80  N         13.7070   73.6320   72.1980 N.3   318  VAL318     -0.1231
     81  CA        12.2800   73.4170   71.9510 C.3   318  VAL318      0.1692
     82  C         11.6250   72.4020   72.8880 C.2   318  VAL318      0.2591
     83  O         10.4370   72.5310   73.1940 O.2   318  VAL318     -0.2718
     84  CB        12.0090   73.0100   70.4770 C.3   318  VAL318      0.0266
     85  CG1       12.3890   74.1740   69.5550 C.3   318  VAL318      0.0020
     86  CG2       12.8350   71.7940   70.0960 C.3   318  VAL318      0.0020
     87  N         12.3920   71.4180   73.3550 N.am  319  GLU319     -0.1979
     88  CA        11.8290   70.4210   74.2730 C.3   319  GLU319      0.1602
     89  C         11.4700   71.0460   75.6220 C.2   319  GLU319      0.2287
     90  O         10.5620   70.5740   76.2980 O.2   319  GLU319     -0.2864
     91  CB        12.8080   69.2720   74.5200 C.3   319  GLU319      0.0415
     92  CG        12.1060   67.9150   74.6990 C.3   319  GLU319      0.1163
     93  CD        13.0400   66.8230   75.2230 C.2   319  GLU319      0.3649
     94  OE1       12.5520   65.7110   75.5270 O.co2 319  GLU319     -0.2457
     95  OE2       14.2600   67.0740   75.3350 O.co2 319  GLU319     -0.2457
     96  N          6.8970   63.1760   69.0930 N.3   338  LEU338     -0.1245
     97  CA         7.2300   64.1840   68.0940 C.3   338  LEU338      0.1561
     98  C          7.1930   63.3750   66.8320 C.2   338  LEU338      0.2260
     99  O          7.9170   62.3790   66.7250 O.2   338  LEU338     -0.2867
    100  CB         8.6700   64.7110   68.2660 C.3   338  LEU338      0.0270
    101  CG         9.2070   65.4980   67.0690 C.3   338  LEU338      0.0019
    102  CD1        8.2940   66.6770   66.7120 C.3   338  LEU338      0.0001
    103  CD2       10.5930   66.0460   67.4460 C.3   338  LEU338      0.0001
    104  N          7.9530   63.4370   62.7900 N.3   340  ILE340     -0.1245
    105  CA         8.7200   64.1830   61.7840 C.3   340  ILE340      0.1561
    106  C          8.5950   63.6200   60.3880 C.2   340  ILE340      0.2260
    107  O          8.6510   62.4030   60.1820 O.2   340  ILE340     -0.2867
    108  CB        10.3000   64.1400   62.1480 C.3   340  ILE340      0.0252
    109  CG1       10.5570   64.7080   63.5530 C.3   340  ILE340      0.0019
    110  CG2       11.1050   64.9510   61.0590 C.3   340  ILE340      0.0019
    111  CD1       12.0740   64.4590   64.0720 C.3   340  ILE340      0.0001
    112  N         10.0070   64.9450   56.4020 N.3   342  TYR342     -0.1241
    113  CA        10.5940   66.0160   55.6080 C.3   342  TYR342      0.1605
    114  C          9.8210   66.1680   54.3050 C.2   342  TYR342      0.2264
    115  O         10.3580   66.0500   53.2140 O.2   342  TYR342     -0.2867
    116  CB        12.1110   65.7450   55.3540 C.3   342  TYR342      0.0534
    117  CG        12.9060   65.7470   56.6260 C.ar  342  TYR342     -0.0201
    118  CD1       12.6790   66.7210   57.6150 C.ar  342  TYR342     -0.0009
    119  CD2       13.9130   64.7870   56.8470 C.ar  342  TYR342     -0.0009
    120  CE1       13.4340   66.7500   58.8160 C.ar  342  TYR342      0.0417
    121  CE2       14.6800   64.8060   58.0570 C.ar  342  TYR342      0.0417
    122  CZ        14.4230   65.7860   59.0120 C.ar  342  TYR342      0.1957
    123  OH        15.1200   65.8270   60.1820 O.3   342  TYR342     -0.2866
    124  N          6.7320   70.1370   59.4240 N.3   379  ASN379     -0.1225
    125  CA         7.6430   69.0200   59.2820 C.3   379  ASN379      0.1785
    126  C          7.8040   68.2760   60.6000 C.2   379  ASN379      0.2597
    127  O          8.2530   67.1370   60.6040 O.2   379  ASN379     -0.2718
    128  CB         9.0360   69.5150   58.8240 C.3   379  ASN379      0.1169
    129  CG         9.0590   69.9090   57.3770 C.2   379  ASN379      0.2627
    130  OD1        8.3640   70.8580   56.9250 O.2   379  ASN379     -0.2716
    131  ND2        9.8540   69.2050   56.6240 N.am  379  ASN379     -0.0877
    132  N          7.4320   68.8970   61.7350 N.am  380  GLY380     -0.1957
    133  CA         7.5550   68.2200   63.0230 C.3   380  GLY380      0.1869
    134  C          6.2480   68.5330   63.7800 C.2   380  GLY380      0.2309
    135  O          5.8610   69.6880   63.9150 O.2   380  GLY380     -0.2863
    136  N          4.2890   67.9770   67.3700 N.3   382  TRP382     -0.1241
    137  CA         4.3930   67.5180   68.7390 C.3   382  TRP382      0.1605
    138  C          2.9850   67.0540   69.1670 C.2   382  TRP382      0.2264
    139  O          2.0050   67.7470   68.8880 O.2   382  TRP382     -0.2867
    140  CB         4.8690   68.6570   69.6210 C.3   382  TRP382      0.0550
    141  CG         6.2220   69.1610   69.2720 C.ar  382  TRP382      0.0003
    142  CD1        6.5410   70.0460   68.2860 C.ar  382  TRP382      0.0946
    143  CD2        7.4520   68.8430   69.9420 C.ar  382  TRP382      0.0152
    144  NE1        7.9260   70.3190   68.3070 N.ar  382  TRP382     -0.2442
    145  CE2        8.4930   69.5890   69.3120 C.ar  382  TRP382      0.0810
    146  CE3        7.7790   68.0070   71.0120 C.ar  382  TRP382      0.0012
    147  CZ2        9.8300   69.5210   69.7290 C.ar  382  TRP382      0.0191
    148  CZ3        9.1230   67.9380   71.4340 C.ar  382  TRP382      0.0001
    149  CH2       10.1210   68.6980   70.7860 C.ar  382  TRP382      0.0015
    150  N          9.6220   77.3820   63.9160 N.3   405  PRO405     -0.2102
    151  CA         9.7400   77.0660   62.4890 C.3   405  PRO405      0.1504
    152  C          9.3810   75.6690   62.1050 C.2   405  PRO405      0.2576
    153  O          9.8720   74.7410   62.7020 O.2   405  PRO405     -0.2718
    154  CB        11.2180   77.3340   62.1770 C.3   405  PRO405      0.0282
    155  CG        11.6730   78.2480   63.3030 C.3   405  PRO405      0.0208
    156  CD        10.9480   77.6590   64.4960 C.3   405  PRO405      0.0893
    157  N          8.5460   75.5260   61.0790 N.am  406  PHE406     -0.1963
    158  CA         8.2150   74.2010   60.5240 C.3   406  PHE406      0.1771
    159  C          7.6590   73.2140   61.5180 C.2   406  PHE406      0.2619
    160  O          7.7590   71.9780   61.2880 O.2   406  PHE406     -0.2715
    161  CB         9.4790   73.5740   59.8670 C.3   406  PHE406      0.0574
    162  CG        10.1130   74.4630   58.8750 C.ar  406  PHE406     -0.0200
    163  CD1        9.4580   74.7560   57.6800 C.ar  406  PHE406     -0.0042
    164  CD2       11.3520   75.0820   59.1650 C.ar  406  PHE406     -0.0042
    165  CE1        9.9930   75.6390   56.7700 C.ar  406  PHE406     -0.0003
    166  CE2       11.9130   75.9670   58.2850 C.ar  406  PHE406     -0.0003
    167  CZ        11.2340   76.2630   57.0530 C.ar  406  PHE406     -0.0000
    168  N          7.0900   73.7390   62.6110 N.am  407  MET407     -0.1977
    169  CA         6.5140   72.9020   63.6560 C.3   407  MET407      0.1605
    170  C          5.0780   73.2950   64.0630 C.2   407  MET407      0.2287
    171  O          4.6300   74.3970   63.8400 O.2   407  MET407     -0.2864
    172  CB         7.3010   73.0310   64.9250 C.3   407  MET407      0.0413
    173  CG         8.6370   72.3900   64.9760 C.3   407  MET407      0.0598
    174  SD         9.2560   73.0030   66.6230 S.3   407  MET407     -0.1393
    175  CE        10.4700   74.1880   65.9910 C.3   407  MET407      0.0692
    176  N         10.2830   59.8220   69.3790 N.3   447  ILE447     -0.1245
    177  CA        10.3720   60.5870   68.1400 C.3   447  ILE447      0.1561
    178  C         10.1390   59.5680   67.0340 C.2   447  ILE447      0.2260
    179  O         10.8090   58.5180   66.9610 O.2   447  ILE447     -0.2867
    180  CB        11.7660   61.2440   67.9220 C.3   447  ILE447      0.0252
    181  CG1       12.0990   62.2090   69.0540 C.3   447  ILE447      0.0019
    182  CG2       11.7510   62.0310   66.5630 C.3   447  ILE447      0.0019
    183  CD1       12.6860   61.5720   70.1820 C.3   447  ILE447      0.0001
@<TRIPOS>BOND
     1    31    32    1
     2    32    35    1
     3    32    33    1
     4    38    40   ar
     5    38    36   ar
     6    35    36    1
     7    44    43    2
     8    40    39   ar
     9    33    34    2
    10    36    37   ar
    11    43    42    1
    12    25    24    2
    13    41    42    1
    14    39    37   ar
    15    42    45    1
    16    24    23    1
    17   115   114    2
    18    45    46    1
    19    45    47    1
    20    26    23    1
    21    26    27    1
    22    23    22    1
    23   114   113    1
    24    27    28    1
    25     1     2    1
    26     2     3    1
    27   116   113    1
    28   116   117    1
    29   113   112    1
    30    28    30   am
    31    28    29    2
    32   131   129   am
    33   117   119   ar
    34   117   118   ar
    35   165   167   ar
    36   165   163   ar
    37     3     5   am
    38     3     4    2
    39   119   121   ar
    40   130   129    2
    41   167   166   ar
    42     5     6    1
    43   129   128    1
    44   118   120   ar
    45   163   162   ar
    46   121   122   ar
    47   166   164   ar
    48     9     6    1
    49     9    10    1
    50     6     7    1
    51    19    20    1
    52    19    18    1
    53     8     7    2
    54   120   122   ar
    55   128   125    1
    56   162   164   ar
    57   162   161    1
    58   122   123    1
    59    20    21    2
    60     7    13   am
    61   125   124    1
    62   125   126    1
    63    18    15   am
    64    10    12    1
    65    10    11    1
    66   161   158    1
    67   107   106    2
    68   106   105    1
    69    13    14    1
    70    15    16    2
    71    15    14    1
    72   158   157    1
    73   158   159    1
    74   126   127    2
    75   126   132   am
    76   110   108    1
    77   157   152   am
    78    14    17    1
    79   160   159    2
    80   159   168   am
    81   132   133    1
    82   105   108    1
    83   105   104    1
    84   152   151    1
    85   152   153    2
    86   108   109    1
    87   154   151    1
    88   154   155    1
    89   151   150    1
    90   168   169    1
    91   133   134    1
    92   155   156    1
    93    65    64    1
    94   109   111    1
    95   169   170    1
    96   169   172    1
    97   134   135    2
    98   171   170    2
    99    66    64    1
   100   150   156    1
   101    56    58   ar
   102    56    54   ar
   103    64    63    1
   104    58    57   ar
   105    54    53   ar
   106   172   173    1
   107   173   174    1
   108    63    60    1
   109    59    60    1
   110    57    55   ar
   111   175   174    1
   112    50    49    1
   113    50    51    2
   114    53    55   ar
   115    53    52    1
   116    60    61    1
   117    49    52    1
   118    49    48    1
   119   182   180    1
   120   102   101    1
   121    99    98    2
   122    98    97    1
   123   179   178    2
   124   178   177    1
   125   101   103    1
   126   101   100    1
   127   136   137    1
   128    61    62    2
   129    61    67   am
   130   180   177    1
   131   180   181    1
   132    97   100    1
   133    97    96    1
   134   177   176    1
   135   142   144   ar
   136   142   141   ar
   137   144   145   ar
   138    67    68    1
   139   137   138    1
   140   137   140    1
   141   139   138    2
   142   181   183    1
   143   141   140    1
   144   141   143   ar
   145   145   147   ar
   146   145   143   ar
   147    85    84    1
   148    70    69    2
   149   147   149   ar
   150    68    69    1
   151    68    71    1
   152   143   146   ar
   153    86    84    1
   154    73    71    1
   155    69    74   am
   156    84    81    1
   157    71    72    1
   158   149   148   ar
   159   146   148   ar
   160    74    75    1
   161    75    78    1
   162    75    76    1
   163    81    80    1
   164    81    82    1
   165    78    79    1
   166    76    77    2
   167    82    83    2
   168    82    87   am
   169    87    88    1
   170    88    91    1
   171    88    89    1
   172    91    92    1
   173    92    93    1
   174    93    95   ar
   175    93    94   ar
   176    89    90    2
