@<TRIPOS>MOLECULE
tmp/2zytA00.pdb
 214 208 0 0 0
SMALL
GASTEIGER

@<TRIPOS>ATOM
      1  N         23.6950    0.0540    1.8140 N.3    44  PRO44      -0.2102
      2  CA        23.0460    1.0830    2.6300 C.3    44  PRO44       0.1504
      3  C         21.7720    0.6220    3.3210 C.2    44  PRO44       0.2576
      4  O         20.9560   -0.0970    2.7310 O.2    44  PRO44      -0.2718
      5  CB        22.7060    2.1700    1.6070 C.3    44  PRO44       0.0282
      6  CG        23.8510    2.0780    0.6130 C.3    44  PRO44       0.0208
      7  CD        24.1470    0.5880    0.5060 C.3    44  PRO44       0.0893
      8  N         21.6360    1.0450    4.5730 N.am   45  LYS45      -0.1966
      9  CA        20.4050    0.8980    5.3690 C.3    45  LYS45       0.1728
     10  C         20.2190   -0.5120    5.9200 C.2    45  LYS45       0.2617
     11  O         19.0920   -0.9080    6.2590 O.2    45  LYS45      -0.2715
     12  CB        19.1510    1.3380    4.5890 C.3    45  LYS45       0.0311
     13  CG        19.2700    2.6600    3.8120 C.3    45  LYS45       0.0038
     14  CD        20.0540    3.7490    4.5440 C.3    45  LYS45       0.0206
     15  CE        19.2960    4.2150    5.7930 C.3    45  LYS45       0.1093
     16  NZ        20.1370    5.1850    6.5530 N.3    45  LYS45      -0.1314
     17  N         21.3260   -1.2410    6.0560 N.am   46  SER46      -0.1936
     18  CA        21.2780   -2.6440    6.4330 C.3    46  SER46       0.2055
     19  C         21.7110   -2.9380    7.8630 C.2    46  SER46       0.2644
     20  O         21.6780   -4.0980    8.2900 O.2    46  SER46      -0.2714
     21  CB        22.0990   -3.4840    5.4530 C.3    46  SER46       0.2130
     22  OG        21.5530   -3.3420    4.1530 O.3    46  SER46      -0.2179
     23  N         22.0810   -1.8950    8.6030 N.am   47  GLY47      -0.1939
     24  CA        22.5220   -2.0470   10.0040 C.3    47  GLY47       0.2014
     25  C         23.9250   -1.5320   10.2730 C.2    47  GLY47       0.2640
     26  O         24.5650   -1.9300   11.2510 O.2    47  GLY47      -0.2714
     27  N         24.4180   -0.6450    9.4090 N.am   48  THR48      -0.1936
     28  CA        25.7900   -0.1420    9.5110 C.3    48  THR48       0.2028
     29  C         26.0550    0.5500   10.8460 C.2    48  THR48       0.2643
     30  O         27.0470    0.2560   11.5110 O.2    48  THR48      -0.2714
     31  CB        26.1240    0.8500    8.3670 C.3    48  THR48       0.1808
     32  OG1       25.4990    0.4200    7.1500 O.3    48  THR48      -0.2208
     33  CG2       27.6160    0.9410    8.1490 C.3    48  THR48       0.0379
     34  N         25.1750    1.4780   11.2100 N.am   49  THR49      -0.1936
     35  CA        25.3580    2.3110   12.4070 C.3    49  THR49       0.2028
     36  C         25.2370    1.4300   13.6530 C.2    49  THR49       0.2642
     37  O         26.0140    1.5640   14.5990 O.2    49  THR49      -0.2714
     38  CB        24.3190    3.4580   12.4480 C.3    49  THR49       0.1808
     39  OG1       24.2630    4.1030   11.1740 O.3    49  THR49      -0.2208
     40  CG2       24.6880    4.4840   13.5110 C.3    49  THR49       0.0379
     41  N         24.2800    0.5060   13.6200 N.am   50  TRP50      -0.1973
     42  CA        24.0510   -0.4360   14.7190 C.3    50  TRP50       0.1640
     43  C         25.3320   -1.1920   15.0290 C.2    50  TRP50       0.2290
     44  O         25.8190   -1.1760   16.1660 O.2    50  TRP50      -0.2864
     45  CB        22.9890   -1.4380   14.2970 C.3    50  TRP50       0.0576
     46  CG        22.3610   -2.2120   15.4110 C.ar   50  TRP50       0.0006
     47  CD1       22.7490   -2.2710   16.7260 C.ar   50  TRP50       0.0946
     48  CD2       21.2370   -3.0710   15.2830 C.ar   50  TRP50       0.0152
     49  NE1       21.9060   -3.1070   17.4260 N.ar   50  TRP50      -0.2442
     50  CE2       20.9700   -3.6120   16.5600 C.ar   50  TRP50       0.0810
     51  CE3       20.4100   -3.4250   14.2040 C.ar   50  TRP50       0.0012
     52  CZ2       19.9070   -4.4910   16.7890 C.ar   50  TRP50       0.0191
     53  CZ3       19.3690   -4.3030   14.4290 C.ar   50  TRP50       0.0001
     54  CH2       19.1210   -4.8230   15.7160 C.ar   50  TRP50       0.0015
     55  N         34.0190    2.0080    7.9860 N.3   103  LYS103     -0.1245
     56  CA        32.7140    1.7910    7.3460 C.3   103  LYS103      0.1561
     57  C         32.8290    1.8860    5.8170 C.2   103  LYS103      0.2260
     58  O         33.4600    2.7920    5.2890 O.2   103  LYS103     -0.2867
     59  CB        31.6700    2.8060    7.8440 C.3   103  LYS103      0.0271
     60  CG        30.4350    2.9510    6.9280 C.3   103  LYS103      0.0035
     61  CD        29.5120    4.0820    7.3940 C.3   103  LYS103      0.0206
     62  CE        28.4050    4.3400    6.3800 C.3   103  LYS103      0.1093
     63  NZ        27.4440    5.3670    6.8760 N.3   103  LYS103     -0.1314
     64  N         30.2520    1.0470    2.0410 N.3   105  HIS105     -0.1241
     65  CA        29.1210    0.4380    1.3510 C.3   105  HIS105      0.1621
     66  C         29.5400   -0.0880   -0.0180 C.2   105  HIS105      0.2264
     67  O         28.6760   -0.3750   -0.8570 O.2   105  HIS105     -0.2867
     68  CB        27.9870    1.4370    1.1140 C.3   105  HIS105      0.0745
     69  CG        27.3310    1.9370    2.3580 C.ar  105  HIS105      0.0817
     70  ND1       26.9560    1.1090    3.3960 N.ar  105  HIS105     -0.2268
     71  CD2       26.9220    3.1800    2.6980 C.ar  105  HIS105      0.1154
     72  CE1       26.3600    1.8270    4.3320 C.ar  105  HIS105      0.1986
     73  NE2       26.3340    3.0890    3.9380 N.ar  105  HIS105     -0.2212
     74  N         20.3390   -7.1590    5.0990 N.3   127  ARG127     -0.1245
     75  CA        18.9950   -6.9160    5.5990 C.3   127  ARG127      0.1563
     76  C         18.0410   -7.2220    4.4500 C.2   127  ARG127      0.2260
     77  O         18.4080   -7.0710    3.2760 O.2   127  ARG127     -0.2867
     78  CB        18.8670   -5.4560    6.0430 C.3   127  ARG127      0.0307
     79  CG        17.5180   -5.0920    6.6860 C.3   127  ARG127      0.0489
     80  CD        17.4730   -3.6220    7.0500 C.3   127  ARG127      0.2205
     81  NE        16.3260   -3.3270    7.9180 N.pl3 127  ARG127     -0.0865
     82  CZ        15.9690   -2.1080    8.2990 C.cat 127  ARG127      0.5346
     83  NH1       16.6620   -1.0440    7.8840 N.pl3 127  ARG127      0.1354
     84  NH2       14.9250   -1.9500    9.1080 N.pl3 127  ARG127      0.1354
     85  N         12.6570   -4.2340    3.3150 N.3   131  ASP131     -0.1239
     86  CA        12.9250   -3.3040    4.4150 C.3   131  ASP131      0.1674
     87  C         14.0320   -2.3130    4.0430 C.2   131  ASP131      0.2266
     88  O         13.9680   -1.1290    4.3990 O.2   131  ASP131     -0.2867
     89  CB        13.2620   -4.0570    5.7020 C.3   131  ASP131      0.1410
     90  CG        12.0240   -4.5860    6.4210 C.2   131  ASP131      0.3668
     91  OD1       10.8850   -4.1440    6.1000 O.co2 131  ASP131     -0.2456
     92  OD2       12.1960   -5.4180    7.3350 O.co2 131  ASP131     -0.2456
     93  N         13.6430    1.8760    4.0220 N.3   135  SER135     -0.1217
     94  CA        14.5820    2.6790    4.7860 C.3   135  SER135      0.1889
     95  C         15.3620    3.6220    3.8690 C.2   135  SER135      0.2288
     96  O         15.6090    4.7760    4.2220 O.2   135  SER135     -0.2866
     97  CB        15.5400    1.7730    5.5660 C.3   135  SER135      0.2089
     98  OG        16.4800    2.5430    6.2910 O.3   135  SER135     -0.2183
     99  N         15.7250    7.7610    3.6970 N.3   139  PHE139     -0.1241
    100  CA        17.1050    8.2590    3.7770 C.3   139  PHE139      0.1605
    101  C         17.4410    9.1910    2.6030 C.2   139  PHE139      0.2264
    102  O         18.0250   10.2460    2.8160 O.2   139  PHE139     -0.2867
    103  CB        18.1010    7.1030    3.8590 C.3   139  PHE139      0.0534
    104  CG        19.5180    7.5260    4.2020 C.ar  139  PHE139     -0.0203
    105  CD1       19.7910    8.2780    5.3490 C.ar  139  PHE139     -0.0042
    106  CD2       20.5840    7.1190    3.3970 C.ar  139  PHE139     -0.0042
    107  CE1       21.0970    8.6460    5.6660 C.ar  139  PHE139     -0.0003
    108  CE2       21.8920    7.4800    3.7110 C.ar  139  PHE139     -0.0003
    109  CZ        22.1460    8.2510    4.8500 C.ar  139  PHE139     -0.0000
    110  N         20.5340   -8.4260    9.7070 N.3   190  TYR190     -0.1241
    111  CA        19.8340   -7.4540   10.5410 C.3   190  TYR190      0.1605
    112  C         18.7030   -8.1360   11.3170 C.2   190  TYR190      0.2264
    113  O         18.5190   -7.8860   12.5130 O.2   190  TYR190     -0.2867
    114  CB        19.2840   -6.3540    9.6410 C.3   190  TYR190      0.0534
    115  CG        18.5040   -5.2670   10.3360 C.ar  190  TYR190     -0.0201
    116  CD1       19.0900   -4.0420   10.6290 C.ar  190  TYR190     -0.0009
    117  CD2       17.1580   -5.4560   10.6740 C.ar  190  TYR190     -0.0009
    118  CE1       18.3710   -3.0280   11.2600 C.ar  190  TYR190      0.0417
    119  CE2       16.4380   -4.4530   11.3070 C.ar  190  TYR190      0.0417
    120  CZ        17.0360   -3.2470   11.5890 C.ar  190  TYR190      0.1957
    121  OH        16.3080   -2.2640   12.2160 O.3   190  TYR190     -0.2866
    122  N         17.8930   -8.3700   15.3200 N.3   194  LYS194     -0.1245
    123  CA        16.6070   -7.9680   15.8780 C.3   194  LYS194      0.1561
    124  C         16.0520   -9.0370   16.8050 C.2   194  LYS194      0.2260
    125  O         15.5550   -8.7220   17.8890 O.2   194  LYS194     -0.2867
    126  CB        15.5880   -7.6800   14.7700 C.3   194  LYS194      0.0271
    127  CG        15.7470   -6.3060   14.1300 C.3   194  LYS194      0.0035
    128  CD        15.4630   -5.1550   15.1060 C.3   194  LYS194      0.0206
    129  CE        14.0370   -5.1950   15.6360 C.3   194  LYS194      0.1093
    130  NZ        13.7290   -4.0410   16.5390 N.3   194  LYS194     -0.1314
    131  N         23.6060   -0.2850   22.6410 N.3   224  SER224     -0.1217
    132  CA        23.4080   -0.4520   21.2040 C.3   224  SER224      0.1889
    133  C         21.9420   -0.7310   20.8300 C.2   224  SER224      0.2288
    134  O         21.6270   -0.9730   19.6570 O.2   224  SER224     -0.2866
    135  CB        24.3510   -1.5230   20.6560 C.3   224  SER224      0.2089
    136  OG        23.9980   -2.8130   21.1180 O.3   224  SER224     -0.2183
    137  N         18.0660    0.1800   19.9700 N.3   226  PHE226     -0.1241
    138  CA        17.5170    1.2580   19.1610 C.3   226  PHE226      0.1605
    139  C         17.0950    2.4640   19.9980 C.2   226  PHE226      0.2264
    140  O         17.4280    3.6010   19.6600 O.2   226  PHE226     -0.2867
    141  CB        16.3330    0.7570   18.3350 C.3   226  PHE226      0.0534
    142  CG        15.7030    1.8190   17.4930 C.ar  226  PHE226     -0.0203
    143  CD1       16.2670    2.1780   16.2630 C.ar  226  PHE226     -0.0042
    144  CD2       14.5550    2.4730   17.9260 C.ar  226  PHE226     -0.0042
    145  CE1       15.6820    3.1720   15.4750 C.ar  226  PHE226     -0.0003
    146  CE2       13.9680    3.4650   17.1540 C.ar  226  PHE226     -0.0003
    147  CZ        14.5270    3.8130   15.9180 C.ar  226  PHE226     -0.0000
    148  N         20.1810    4.3020   21.2360 N.3   229  MET229     -0.1245
    149  CA        20.8870    4.9310   20.1260 C.3   229  MET229      0.1570
    150  C         20.1260    6.1240   19.5520 C.2   229  MET229      0.2261
    151  O         20.7360    7.1530   19.2580 O.2   229  MET229     -0.2867
    152  CB        21.2450    3.9160   19.0420 C.3   229  MET229      0.0387
    153  CG        22.3530    2.9720   19.4710 C.3   229  MET229      0.0595
    154  SD        22.9090    1.9040   18.1240 S.3   229  MET229     -0.1393
    155  CE        23.5730    3.0860   16.9430 C.3   229  MET229      0.0692
    156  N         17.1640    9.9000   11.0300 N.3   252  PHE252     -0.1227
    157  CA        18.0380    8.7780   10.6850 C.3   252  PHE252      0.1736
    158  C         17.6010    7.5120   11.4220 C.2   252  PHE252      0.2595
    159  O         17.4790    6.4320   10.8320 O.2   252  PHE252     -0.2718
    160  CB        19.5000    9.0940   11.0180 C.3   252  PHE252      0.0547
    161  CG        20.4630    8.0560   10.5140 C.ar  252  PHE252     -0.0202
    162  CD1       21.0610    8.1990    9.2650 C.ar  252  PHE252     -0.0042
    163  CD2       20.7450    6.9170   11.2650 C.ar  252  PHE252     -0.0042
    164  CE1       21.9300    7.2330    8.7890 C.ar  252  PHE252     -0.0003
    165  CE2       21.6140    5.9450   10.7910 C.ar  252  PHE252     -0.0003
    166  CZ        22.2050    6.1060    9.5440 C.ar  252  PHE252     -0.0000
    167  N         17.3940    7.6510   12.7310 N.am  253  MET253     -0.1965
    168  CA        16.9260    6.5510   13.5490 C.3   253  MET253      0.1736
    169  C         15.4120    6.5630   13.4190 C.2   253  MET253      0.2616
    170  O         14.7090    7.2430   14.1730 O.2   253  MET253     -0.2715
    171  CB        17.3830    6.7350   15.0020 C.3   253  MET253      0.0427
    172  CG        18.8930    6.7140   15.1710 C.3   253  MET253      0.0599
    173  SD        19.5850    5.0870   14.7880 S.3   253  MET253     -0.1393
    174  CE        21.3270    5.4030   14.9500 C.3   253  MET253      0.0692
    175  N         14.9170    5.8220   12.4300 N.am  254  ARG254     -0.1963
    176  CA        13.5500    6.0120   11.9600 C.3   254  ARG254      0.1729
    177  C         12.5610    5.1400   12.7320 C.2   254  ARG254      0.2616
    178  O         11.8030    5.6570   13.5760 O.2   254  ARG254     -0.2715
    179  CB        13.4900    5.7800   10.4380 C.3   254  ARG254      0.0348
    180  CG        12.1580    6.1220    9.7920 C.3   254  ARG254      0.0492
    181  CD        12.2030    5.8600    8.2870 C.3   254  ARG254      0.2205
    182  NE        12.3230    4.4270    8.0290 N.pl3 254  ARG254     -0.0865
    183  CZ        11.2930    3.5970    7.8670 C.cat 254  ARG254      0.5346
    184  NH1       10.0390    4.0510    7.8820 N.pl3 254  ARG254      0.1354
    185  NH2       11.5190    2.2990    7.6650 N.pl3 254  ARG254      0.1354
    186  N         12.5770    3.8340   12.4750 N.am  255  LYS255     -0.1963
    187  CA        11.7460    2.8750   13.2210 C.3   255  LYS255      0.1728
    188  C         12.5420    1.7420   13.8730 C.2   255  LYS255      0.2617
    189  O         12.2330    1.3380   15.0020 O.2   255  LYS255     -0.2715
    190  CB        10.6420    2.2680   12.3460 C.3   255  LYS255      0.0311
    191  CG         9.5900    3.2350   11.8640 C.3   255  LYS255      0.0038
    192  CD         8.4530    2.4680   11.2080 C.3   255  LYS255      0.0206
    193  CE         7.4150    3.4140   10.6750 C.3   255  LYS255      0.1093
    194  NZ         6.2190    2.6860   10.1530 N.3   255  LYS255     -0.1314
    195  N         13.5350    1.2090   13.1580 N.am  256  GLY256     -0.1940
    196  CA        14.4030    0.1610   13.6980 C.3   256  GLY256      0.2014
    197  C         13.7170   -1.1780   13.9050 C.2   256  GLY256      0.2638
    198  O         14.0290   -1.9050   14.8540 O.2   256  GLY256     -0.2714
    199  N         12.7700   -1.5010   13.0290 N.am  257  ILE257     -0.1977
    200  CA        12.0840   -2.7880   13.0710 C.3   257  ILE257      0.1596
    201  C         12.3670   -3.5970   11.8120 C.2   257  ILE257      0.2287
    202  O         12.9720   -3.0950   10.8560 O.2   257  ILE257     -0.2864
    203  CB        10.5330   -2.6310   13.2530 C.3   257  ILE257      0.0276
    204  CG1        9.8960   -1.9880   12.0080 C.3   257  ILE257      0.0022
    205  CG2       10.2290   -1.8350   14.5300 C.3   257  ILE257      0.0022
    206  CD1        8.3380   -1.9660   12.0180 C.3   257  ILE257      0.0001
    207  N          8.6870   -3.2990    8.2650 N.3   260  ASP260     -0.1239
    208  CA         8.0440   -2.0150    7.8980 C.3   260  ASP260      0.1674
    209  C          7.6190   -1.9820    6.4300 C.2   260  ASP260      0.2266
    210  O          6.7910   -1.1530    6.0280 O.2   260  ASP260     -0.2867
    211  CB         8.9260   -0.8010    8.2030 C.3   260  ASP260      0.1410
    212  CG         8.1520    0.5070    8.1810 C.2   260  ASP260      0.3668
    213  OD1        6.9890    0.5280    8.6590 O.co2 260  ASP260     -0.2456
    214  OD2        8.7020    1.5230    7.7040 O.co2 260  ASP260     -0.2456
@<TRIPOS>BOND
     1    67    66    2
     2    66    65    1
     3     7     6    1
     4     7     1    1
     5     6     5    1
     6    68    65    1
     7    68    69    1
     8    65    64    1
     9     5     2    1
    10     1     2    1
    11    69    71   ar
    12    69    70   ar
    13   101   102    2
    14   101   100    1
    15     2     3    1
    16    71    73   ar
    17     4     3    2
    18    77    76    2
    19    85    86    1
    20     3     8   am
    21    70    72   ar
    22   106   108   ar
    23   106   104   ar
    24    99   100    1
    25   108   109   ar
    26   100   103    1
    27    13    14    1
    28    13    12    1
    29   103   104    1
    30    95    96    2
    31    95    94    1
    32    73    72   ar
    33    93    94    1
    34    87    88    2
    35    87    86    1
    36    22    21    1
    37   104   105   ar
    38    86    89    1
    39    76    75    1
    40    14    15    1
    41     8     9    1
    42    12     9    1
    43    94    97    1
    44   109   107   ar
    45    74    75    1
    46    58    57    2
    47   105   107   ar
    48     9    10    1
    49    21    18    1
    50    97    98    1
    51    75    78    1
    52    89    90    1
    53    15    16    1
    54    57    56    1
    55    10    17   am
    56    10    11    2
    57   210   209    2
    58    78    79    1
    59    17    18    1
    60    91    90   ar
    61    62    63    1
    62    62    61    1
    63    90    92   ar
    64   209   208    1
    65    18    19    1
    66    79    80    1
    67    60    61    1
    68    60    59    1
    69    80    81    1
    70    32    31    1
    71    56    59    1
    72    56    55    1
    73   185   183    1
    74   214   212   ar
    75    19    20    2
    76    19    23   am
    77   183   184    1
    78   183   182    2
    79    83    82    1
    80   208   211    1
    81   208   207    1
    82    81    82    2
    83   182   181    1
    84    33    31    1
    85   212   211    1
    86   212   213   ar
    87   181   180    1
    88    82    84    1
    89    31    28    1
    90    23    24    1
    91   164   162   ar
    92   164   166   ar
    93   162   161   ar
    94    27    28    1
    95    27    25   am
    96    28    29    1
    97   166   165   ar
    98   114   115    1
    99   114   111    1
   100   110   111    1
   101   180   179    1
   102    24    25    1
   103   194   193    1
   104    25    26    2
   105   115   116   ar
   106   115   117   ar
   107   179   176    1
   108   161   160    1
   109   161   163   ar
   110   111   112    1
   111   116   118   ar
   112   117   119   ar
   113   193   192    1
   114   157   160    1
   115   157   156    1
   116   157   158    1
   117   165   163   ar
   118   159   158    2
   119    29    34   am
   120    29    30    2
   121   202   201    2
   122    39    38    1
   123   192   191    1
   124    34    35    1
   125   118   120   ar
   126   119   120   ar
   127   112   113    2
   128   158   167   am
   129   120   121    1
   130   201   200    1
   131   191   190    1
   132   176   175    1
   133   176   177    1
   134   204   206    1
   135   204   203    1
   136   190   187    1
   137    35    38    1
   138    35    36    1
   139   175   169   am
   140    38    40    1
   141   186   177   am
   142   186   187    1
   143   167   168    1
   144   177   178    2
   145   199   200    1
   146   199   197   am
   147   200   203    1
   148   195   196    1
   149   195   188   am
   150   187   188    1
   151   203   205    1
   152   169   168    1
   153   169   170    2
   154   168   171    1
   155    41    36   am
   156    41    42    1
   157    36    37    2
   158   196   197    1
   159   188   189    2
   160   197   198    2
   161   127   126    1
   162   127   128    1
   163    51    53   ar
   164    51    48   ar
   165    45    42    1
   166    45    46    1
   167    53    54   ar
   168    42    43    1
   169   126   123    1
   170   173   174    1
   171   173   172    1
   172   171   172    1
   173    43    44    2
   174   128   129    1
   175    48    46   ar
   176    48    50   ar
   177   122   123    1
   178    46    47   ar
   179   145   147   ar
   180   145   143   ar
   181   129   130    1
   182    54    52   ar
   183   123   124    1
   184   147   146   ar
   185   143   142   ar
   186    50    52   ar
   187    50    49   ar
   188    47    49   ar
   189   124   125    2
   190   155   154    1
   191   146   144   ar
   192   142   144   ar
   193   142   141    1
   194   154   153    1
   195   141   138    1
   196   152   153    1
   197   152   149    1
   198   138   137    1
   199   138   139    1
   200   151   150    2
   201   150   149    1
   202   134   133    2
   203   140   139    2
   204   149   148    1
   205   135   136    1
   206   135   132    1
   207   133   132    1
   208   132   131    1
