@<TRIPOS>MOLECULE
tmp/2zyuA01.pdb
 183 175 0 0 0
SMALL
GASTEIGER

@<TRIPOS>ATOM
      1  N        -26.3410  -43.3740    2.6240 N.3    16  PHE16      -0.1241
      2  CA       -26.4290  -44.7880    2.9240 C.3    16  PHE16       0.1605
      3  C        -26.8920  -45.5400    1.7050 C.2    16  PHE16       0.2264
      4  O        -27.7630  -45.0910    0.9490 O.2    16  PHE16      -0.2867
      5  CB       -27.4020  -45.0610    4.0680 C.3    16  PHE16       0.0534
      6  CG       -27.0760  -44.3440    5.3370 C.ar   16  PHE16      -0.0203
      7  CD1      -25.7690  -44.1930    5.7660 C.ar   16  PHE16      -0.0042
      8  CD2      -28.1070  -43.8590    6.1400 C.ar   16  PHE16      -0.0042
      9  CE1      -25.4870  -43.5230    6.9520 C.ar   16  PHE16      -0.0003
     10  CE2      -27.8410  -43.2060    7.3320 C.ar   16  PHE16      -0.0003
     11  CZ       -26.5220  -43.0400    7.7400 C.ar   16  PHE16      -0.0000
     12  N        -37.8750  -41.2070   16.9760 N.3    71  TYR71      -0.1227
     13  CA       -37.6420  -41.5530   15.5740 C.3    71  TYR71       0.1736
     14  C        -38.8980  -42.0960   14.8940 C.2    71  TYR71       0.2595
     15  O        -38.9280  -42.2390   13.6830 O.2    71  TYR71      -0.2718
     16  CB       -36.4450  -42.4950   15.4070 C.3    71  TYR71       0.0548
     17  CG       -36.5160  -43.7150   16.2660 C.ar   71  TYR71      -0.0200
     18  CD1      -37.2510  -44.8290   15.8600 C.ar   71  TYR71      -0.0009
     19  CD2      -35.8450  -43.7680   17.4840 C.ar   71  TYR71      -0.0009
     20  CE1      -37.3230  -45.9700   16.6450 C.ar   71  TYR71       0.0417
     21  CE2      -35.8950  -44.9080   18.2740 C.ar   71  TYR71       0.0417
     22  CZ       -36.6420  -46.0010   17.8460 C.ar   71  TYR71       0.1957
     23  OH       -36.7040  -47.1190   18.6360 O.3    71  TYR71      -0.2866
     24  N        -39.9320  -42.3690   15.6890 N.am   72  LYS72      -0.1980
     25  CA       -41.2400  -42.7430   15.1590 C.3    72  LYS72       0.1596
     26  C        -42.1880  -41.5470   15.1910 C.2    72  LYS72       0.2287
     27  O        -42.9960  -41.3690   14.2790 O.2    72  LYS72      -0.2864
     28  CB       -41.8170  -43.9580   15.8960 C.3    72  LYS72       0.0298
     29  CG       -41.0110  -45.2490   15.6480 C.3    72  LYS72       0.0038
     30  CD       -41.8810  -46.4980   15.7680 C.3    72  LYS72       0.0206
     31  CE       -41.1180  -47.7780   15.3990 C.3    72  LYS72       0.1093
     32  NZ       -40.4850  -47.7430   14.0190 N.3    72  LYS72      -0.1314
     33  N        -37.4950  -39.8500   10.2450 N.3    76  PHE76      -0.1241
     34  CA       -36.3210  -39.4750    9.4420 C.3    76  PHE76       0.1605
     35  C        -36.6790  -39.8670    8.0110 C.2    76  PHE76       0.2264
     36  O        -36.6040  -41.0290    7.6450 O.2    76  PHE76      -0.2867
     37  CB       -35.1980  -40.3400    9.9650 C.3    76  PHE76       0.0534
     38  CG       -33.8240  -40.0540    9.3960 C.ar   76  PHE76      -0.0203
     39  CD1      -33.6170  -39.2840    8.2540 C.ar   76  PHE76      -0.0042
     40  CD2      -32.7180  -40.6400   10.0080 C.ar   76  PHE76      -0.0042
     41  CE1      -32.3060  -39.0970    7.7610 C.ar   76  PHE76      -0.0003
     42  CE2      -31.4290  -40.4580    9.5210 C.ar   76  PHE76      -0.0003
     43  CZ       -31.2210  -39.7000    8.3950 C.ar   76  PHE76      -0.0000
     44  N        -34.4910  -41.9090    5.4900 N.3    79  LEU79      -0.1245
     45  CA       -33.8810  -43.1020    6.0200 C.3    79  LEU79       0.1561
     46  C        -34.7420  -44.3130    5.7070 C.2    79  LEU79       0.2260
     47  O        -35.8170  -44.5040    6.2780 O.2    79  LEU79      -0.2867
     48  CB       -33.5960  -43.0120    7.5030 C.3    79  LEU79       0.0270
     49  CG       -32.8410  -44.2500    7.9780 C.3    79  LEU79       0.0019
     50  CD1      -31.4500  -44.2760    7.3500 C.3    79  LEU79       0.0001
     51  CD2      -32.7490  -44.2040    9.4750 C.3    79  LEU79       0.0001
     52  N        -34.1430  -48.3820    5.2610 N.3    81  ILE81      -0.1245
     53  CA       -33.2160  -49.4810    5.4360 C.3    81  ILE81       0.1561
     54  C        -34.0890  -50.7240    5.3590 C.2    81  ILE81       0.2260
     55  O        -34.9610  -50.9110    6.2060 O.2    81  ILE81      -0.2867
     56  CB       -32.5310  -49.4560    6.8090 C.3    81  ILE81       0.0252
     57  CG1      -31.7990  -48.1270    7.0550 C.3    81  ILE81       0.0019
     58  CG2      -31.5730  -50.6470    6.9530 C.3    81  ILE81       0.0019
     59  CD1      -31.3050  -47.9900    8.4690 C.3    81  ILE81       0.0001
     60  N        -35.8150  -52.7320    8.3130 N.3    84  ILE84      -0.1231
     61  CA       -35.6130  -51.9680    9.5340 C.3    84  ILE84       0.1692
     62  C        -36.5200  -50.7440    9.6350 C.2    84  ILE84       0.2592
     63  O        -37.2420  -50.5630   10.6200 O.2    84  ILE84      -0.2718
     64  CB       -34.1260  -51.5510    9.6840 C.3    84  ILE84       0.0266
     65  CG1      -33.2100  -52.7860    9.7410 C.3    84  ILE84       0.0019
     66  CG2      -33.9420  -50.6130   10.8820 C.3    84  ILE84       0.0020
     67  CD1      -33.4820  -53.7390   10.9060 C.3    84  ILE84       0.0001
     68  N        -36.4770  -49.8860    8.6260 N.am   85  THR85      -0.1953
     69  CA       -37.2530  -48.6700    8.7110 C.3    85  THR85       0.1897
     70  C        -37.4690  -48.1080    7.3250 C.2    85  THR85       0.2313
     71  O        -36.7010  -48.3780    6.3990 O.2    85  THR85      -0.2863
     72  CB       -36.5250  -47.6070    9.6060 C.3    85  THR85       0.1794
     73  OG1      -37.3990  -46.4970    9.8420 O.3    85  THR85      -0.2208
     74  CG2      -35.2440  -47.1220    8.9390 C.3    85  THR85       0.0378
     75  N        -43.3530  -44.3750    6.8140 N.3    90  MET90      -0.1245
     76  CA       -43.8260  -43.9290    8.1210 C.3    90  MET90       0.1570
     77  C        -44.5140  -42.5790    8.0200 C.2    90  MET90       0.2261
     78  O        -45.6020  -42.3630    8.5790 O.2    90  MET90      -0.2867
     79  CB       -42.6750  -43.8600    9.1060 C.3    90  MET90       0.0387
     80  CG       -41.9870  -45.1880    9.3320 C.3    90  MET90       0.0595
     81  SD       -40.4560  -44.8870   10.2370 S.3    90  MET90      -0.1393
     82  CE       -41.1560  -44.2790   11.7650 C.3    90  MET90       0.0692
     83  N        -38.2400  -35.2090    9.7840 N.3   101  LYS101     -0.1245
     84  CA       -36.8360  -35.0270    9.9870 C.3   101  LYS101      0.1561
     85  C        -36.1370  -35.3110    8.6720 C.2   101  LYS101      0.2260
     86  O        -36.4650  -36.2780    7.9590 O.2   101  LYS101     -0.2867
     87  CB       -36.3150  -35.9580   11.0770 C.3   101  LYS101      0.0271
     88  CG       -34.8030  -36.1820   11.0390 C.3   101  LYS101      0.0035
     89  CD       -34.3800  -37.2740   12.0100 C.3   101  LYS101      0.0206
     90  CE       -32.9080  -37.5940   11.8770 C.3   101  LYS101      0.1093
     91  NZ       -32.5180  -38.5300   12.9750 N.3   101  LYS101     -0.1314
     92  N        -31.9080  -35.0170    6.8820 N.3   103  HIS103     -0.1241
     93  CA       -30.5640  -34.4960    6.8120 C.3   103  HIS103      0.1621
     94  C        -30.1380  -34.1430    5.4080 C.2   103  HIS103      0.2264
     95  O        -28.9610  -33.8800    5.1620 O.2   103  HIS103     -0.2867
     96  CB       -29.5750  -35.5070    7.3670 C.3   103  HIS103      0.0745
     97  CG       -29.7490  -35.8070    8.8130 C.ar  103  HIS103      0.0817
     98  ND1      -29.9270  -34.8260    9.7630 N.ar  103  HIS103     -0.2268
     99  CD2      -29.6970  -36.9800    9.4840 C.ar  103  HIS103      0.1154
    100  CE1      -30.0040  -35.3880   10.9560 C.ar  103  HIS103      0.1986
    101  NE2      -29.8590  -36.6950   10.8150 N.ar  103  HIS103     -0.2212
    102  N        -21.1230  -40.7880   16.6720 N.3   137  PHE137     -0.1241
    103  CA       -22.2830  -41.3630   16.0370 C.3   137  PHE137      0.1605
    104  C        -21.9450  -42.4270   14.9890 C.2   137  PHE137      0.2264
    105  O        -22.5320  -43.4890   14.9980 O.2   137  PHE137     -0.2867
    106  CB       -23.0910  -40.2510   15.4280 C.3   137  PHE137      0.0534
    107  CG       -24.4460  -40.6620   15.0340 C.ar  137  PHE137     -0.0203
    108  CD1      -25.2780  -41.3370   15.9390 C.ar  137  PHE137     -0.0042
    109  CD2      -24.9080  -40.3730   13.7610 C.ar  137  PHE137     -0.0042
    110  CE1      -26.5500  -41.7040   15.5640 C.ar  137  PHE137     -0.0003
    111  CE2      -26.1800  -40.7310   13.3980 C.ar  137  PHE137     -0.0003
    112  CZ       -26.9930  -41.3980   14.2980 C.ar  137  PHE137     -0.0000
    113  N        -23.6890  -45.8560   15.4790 N.3   141  ALA141     -0.1245
    114  CA       -24.7790  -46.0380   14.5290 C.3   141  ALA141      0.1562
    115  C        -24.2450  -46.8190   13.3350 C.2   141  ALA141      0.2260
    116  O        -23.5990  -46.2650   12.4380 O.2   141  ALA141     -0.2867
    117  CB       -25.3550  -44.6870   14.1200 C.3   141  ALA141      0.0290
    118  N        -25.2010  -48.3010   10.6750 N.3   143  ILE143     -0.1231
    119  CA       -25.5160  -48.1070    9.2580 C.3   143  ILE143      0.1692
    120  C        -24.3850  -47.3430    8.5240 C.2   143  ILE143      0.2592
    121  O        -24.2020  -47.4700    7.3080 O.2   143  ILE143     -0.2718
    122  CB       -26.8700  -47.3820    9.1030 C.3   143  ILE143      0.0266
    123  CG1      -27.3280  -47.4240    7.6440 C.3   143  ILE143      0.0019
    124  CG2      -26.7730  -45.9670    9.6430 C.3   143  ILE143      0.0020
    125  CD1      -27.8040  -48.7840    7.2060 C.3   143  ILE143      0.0001
    126  N        -23.6320  -46.5510    9.2770 N.am  144  HIS144     -0.1976
    127  CA       -22.5300  -45.7610    8.7230 C.3   144  HIS144      0.1656
    128  C        -21.3650  -46.6420    8.3640 C.2   144  HIS144      0.2291
    129  O        -21.1850  -47.6690    8.9890 O.2   144  HIS144     -0.2864
    130  CB       -22.0450  -44.7530    9.7560 C.3   144  HIS144      0.0771
    131  CG       -23.0690  -43.7310   10.1040 C.ar  144  HIS144      0.0820
    132  ND1      -23.9710  -43.9020   11.1310 N.ar  144  HIS144     -0.2267
    133  CD2      -23.3580  -42.5370    9.5340 C.ar  144  HIS144      0.1154
    134  CE1      -24.7660  -42.8450   11.1840 C.ar  144  HIS144      0.1986
    135  NE2      -24.4250  -42.0140   10.2160 N.ar  144  HIS144     -0.2212
    136  N        -24.3220  -37.8520    4.0510 N.3   164  PHE164     -0.1241
    137  CA       -24.9830  -36.5640    3.8010 C.3   164  PHE164      0.1605
    138  C        -24.0660  -35.4630    3.2990 C.2   164  PHE164      0.2264
    139  O        -24.4920  -34.3180    3.1010 O.2   164  PHE164     -0.2867
    140  CB       -25.8210  -36.1180    5.0040 C.3   164  PHE164      0.0534
    141  CG       -26.9760  -37.0120    5.2460 C.ar  164  PHE164     -0.0203
    142  CD1      -26.9210  -37.9720    6.2540 C.ar  164  PHE164     -0.0042
    143  CD2      -28.0780  -36.9740    4.3890 C.ar  164  PHE164     -0.0042
    144  CE1      -27.9750  -38.8280    6.4580 C.ar  164  PHE164     -0.0003
    145  CE2      -29.1440  -37.8430    4.5810 C.ar  164  PHE164     -0.0003
    146  CZ       -29.0950  -38.7500    5.6310 C.ar  164  PHE164     -0.0000
    147  N        -32.9790  -42.5730   22.0220 N.3   235  TYR235     -0.1241
    148  CA       -32.6480  -43.6410   21.0750 C.3   235  TYR235      0.1605
    149  C        -32.2880  -44.9950   21.6840 C.2   235  TYR235      0.2264
    150  O        -31.9030  -45.9090   20.9520 O.2   235  TYR235     -0.2867
    151  CB       -31.5440  -43.1880   20.1180 C.3   235  TYR235      0.0534
    152  CG       -32.0900  -42.3480   18.9990 C.ar  235  TYR235     -0.0201
    153  CD1      -32.3090  -40.9810   19.1730 C.ar  235  TYR235     -0.0009
    154  CD2      -32.4000  -42.9220   17.7690 C.ar  235  TYR235     -0.0009
    155  CE1      -32.8180  -40.2130   18.1460 C.ar  235  TYR235      0.0417
    156  CE2      -32.9030  -42.1650   16.7300 C.ar  235  TYR235      0.0417
    157  CZ       -33.1210  -40.8150   16.9310 C.ar  235  TYR235      0.1957
    158  OH       -33.6120  -40.0650   15.9080 O.3   235  TYR235     -0.2866
    159  N        -33.7110  -48.1120   20.2400 N.3   238  MET238     -0.1245
    160  CA       -33.1090  -48.6370   19.0210 C.3   238  MET238      0.1570
    161  C        -32.6000  -50.0460   19.2420 C.2   238  MET238      0.2261
    162  O        -32.0300  -50.3440   20.2950 O.2   238  MET238     -0.2867
    163  CB       -31.8990  -47.7970   18.6150 C.3   238  MET238      0.0387
    164  CG       -32.2190  -46.6750   17.7080 C.3   238  MET238      0.0595
    165  SD       -32.7070  -47.2690   16.0900 S.3   238  MET238     -0.1393
    166  CE       -33.6820  -45.8480   15.6520 C.3   238  MET238      0.0692
    167  N        -28.5040  -51.5490   15.2380 N.3   242  GLU242     -0.1231
    168  CA       -28.5220  -50.2670   14.5360 C.3   242  GLU242      0.1699
    169  C        -27.7630  -49.2120   15.3160 C.2   242  GLU242      0.2592
    170  O        -27.0150  -48.4450   14.7410 O.2   242  GLU242     -0.2718
    171  CB       -29.9380  -49.7650   14.3310 C.3   242  GLU242      0.0402
    172  CG       -30.9490  -50.8120   13.9750 C.3   242  GLU242      0.1161
    173  CD       -32.3160  -50.2120   13.9310 C.2   242  GLU242      0.3649
    174  OE1      -32.4520  -49.1410   13.2910 O.co2 242  GLU242     -0.2457
    175  OE2      -33.2440  -50.7910   14.5460 O.co2 242  GLU242     -0.2457
    176  N        -28.0060  -49.1620   16.6210 N.am  243  MET243     -0.1979
    177  CA       -27.3180  -48.2280   17.4990 C.3   243  MET243      0.1605
    178  C        -26.8780  -48.8810   18.7870 C.2   243  MET243      0.2287
    179  O        -27.7010  -49.2910   19.6140 O.2   243  MET243     -0.2864
    180  CB       -28.2020  -47.0380   17.8210 C.3   243  MET243      0.0413
    181  CG       -28.3470  -46.0940   16.6700 C.3   243  MET243      0.0598
    182  SD       -29.1640  -44.6190   17.2550 S.3   243  MET243     -0.1393
    183  CE       -29.5780  -43.8450   15.6860 C.3   243  MET243      0.0692
@<TRIPOS>BOND
     1     4     3    2
     2     3     2    1
     3     1     2    1
     4     2     5    1
     5   139   138    2
     6   138   137    1
     7   137   136    1
     8   137   140    1
     9     5     6    1
    10   143   145   ar
    11   143   141   ar
    12   145   146   ar
    13   140   141    1
    14    95    94    2
    15   141   142   ar
    16    52    53    1
    17     6     7   ar
    18     6     8   ar
    19    54    53    1
    20    54    55    2
    21    94    93    1
    22    53    56    1
    23    44    45    1
    24   146   144   ar
    25    46    45    1
    26    46    47    2
    27     7     9   ar
    28    45    48    1
    29     8    10   ar
    30   142   144   ar
    31    71    70    2
    32    56    58    1
    33    56    57    1
    34    93    92    1
    35    93    96    1
    36    75    76    1
    37     9    11   ar
    38    57    59    1
    39   125   123    1
    40   121   120    2
    41    70    69    1
    42    10    11   ar
    43    50    49    1
    44    96    97    1
    45    48    49    1
    46   123   122    1
    47    36    35    2
    48    41    39   ar
    49    41    43   ar
    50    86    85    2
    51    49    51    1
    52    35    34    1
    53    77    76    1
    54    77    78    2
    55    76    79    1
    56    39    38   ar
    57    60    61    1
    58   128   127    1
    59   128   129    2
    60    43    42   ar
    61   120   119    1
    62   120   126   am
    63    68    69    1
    64    68    62   am
    65    85    84    1
    66    69    72    1
    67   127   126    1
    68   127   130    1
    69    97    99   ar
    70    97    98   ar
    71    74    72    1
    72   122   119    1
    73   122   124    1
    74    79    80    1
    75   119   118    1
    76    80    81    1
    77    38    37    1
    78    38    40   ar
    79    34    37    1
    80    34    33    1
    81    99   101   ar
    82    42    40   ar
    83    61    62    1
    84    61    64    1
    85   133   131   ar
    86   133   135   ar
    87    72    73    1
    88    62    63    2
    89    64    65    1
    90    64    66    1
    91    65    67    1
    92   130   131    1
    93    98   100   ar
    94    83    84    1
    95    84    87    1
    96   131   132   ar
    97   135   134   ar
    98    81    82    1
    99   101   100   ar
   100    88    87    1
   101    88    89    1
   102   132   134   ar
   103    90    89    1
   104    90    91    1
   105   116   115    2
   106   174   173   ar
   107   115   114    1
   108   111   109   ar
   109   111   112   ar
   110    15    14    2
   111   109   107   ar
   112   173   172    1
   113   173   175   ar
   114   172   171    1
   115    32    31    1
   116   117   114    1
   117    27    26    2
   118   112   110   ar
   119   171   168    1
   120   114   113    1
   121   168   167    1
   122   168   169    1
   123   170   169    2
   124    14    13    1
   125    14    24   am
   126   104   105    2
   127   104   103    1
   128   107   106    1
   129   107   108   ar
   130    25    26    1
   131    25    24    1
   132    25    28    1
   133   169   176   am
   134    31    30    1
   135    16    13    1
   136    16    17    1
   137   106   103    1
   138   110   108   ar
   139    13    12    1
   140    29    30    1
   141    29    28    1
   142   166   165    1
   143   183   182    1
   144    18    17   ar
   145    18    20   ar
   146   158   157    1
   147   103   102    1
   148   165   164    1
   149    17    19   ar
   150   176   177    1
   151    20    22   ar
   152   181   182    1
   153   181   180    1
   154   156   157   ar
   155   156   154   ar
   156   157   155   ar
   157    19    21   ar
   158   177   180    1
   159   177   178    1
   160   164   163    1
   161   154   152   ar
   162    22    21   ar
   163    22    23    1
   164   155   153   ar
   165   163   160    1
   166   178   179    2
   167   152   153   ar
   168   152   151    1
   169   160   161    1
   170   160   159    1
   171   161   162    2
   172   151   148    1
   173   150   149    2
   174   148   149    1
   175   148   147    1
