@<TRIPOS>MOLECULE
tmp/2zyvA01.pdb
 165 159 0 0 0
SMALL
GASTEIGER

@<TRIPOS>ATOM
      1  N        -26.7260  -44.1660    2.6640 N.3    16  PHE16      -0.1241
      2  CA       -26.8060  -45.5970    2.9700 C.3    16  PHE16       0.1605
      3  C        -27.2700  -46.3640    1.7440 C.2    16  PHE16       0.2264
      4  O        -28.1510  -45.8970    1.0030 O.2    16  PHE16      -0.2867
      5  CB       -27.7650  -45.8700    4.1360 C.3    16  PHE16       0.0534
      6  CG       -27.3820  -45.1920    5.4230 C.ar   16  PHE16      -0.0203
      7  CD1      -26.0480  -45.0970    5.8110 C.ar   16  PHE16      -0.0042
      8  CD2      -28.3670  -44.6700    6.2620 C.ar   16  PHE16      -0.0042
      9  CE1      -25.7010  -44.4800    6.9980 C.ar   16  PHE16      -0.0003
     10  CE2      -28.0290  -44.0460    7.4540 C.ar   16  PHE16      -0.0003
     11  CZ       -26.6900  -43.9530    7.8220 C.ar   16  PHE16      -0.0000
     12  N        -26.6450  -34.4910   10.1090 N.3    42  PRO42      -0.2102
     13  CA       -26.6030  -35.3870   11.2680 C.3    42  PRO42       0.1504
     14  C        -25.8890  -34.7980   12.5040 C.2    42  PRO42       0.2575
     15  O        -24.8960  -34.0810   12.3680 O.2    42  PRO42      -0.2718
     16  CB       -25.8380  -36.6040   10.7320 C.3    42  PRO42       0.0282
     17  CG       -26.2670  -36.6650    9.2730 C.3    42  PRO42       0.0208
     18  CD       -26.3050  -35.1960    8.8530 C.3    42  PRO42       0.0893
     19  N        -26.4100  -35.1180   13.6900 N.am   43  LYS43      -0.1980
     20  CA       -25.7710  -34.7890   14.9800 C.3    43  LYS43       0.1596
     21  C        -25.8850  -33.3210   15.3380 C.2    43  LYS43       0.2287
     22  O        -25.1180  -32.8270   16.1560 O.2    43  LYS43      -0.2864
     23  CB       -24.2780  -35.1980   15.0110 C.3    43  LYS43       0.0298
     24  CG       -23.9820  -36.6180   14.5570 C.3    43  LYS43       0.0038
     25  CD       -25.1150  -37.6100   14.8920 C.3    43  LYS43       0.0206
     26  CE       -25.1620  -38.0000   16.3520 C.3    43  LYS43       0.1093
     27  NZ       -26.3840  -38.8480   16.5720 N.3    43  LYS43      -0.1314
     28  N        -31.2430  -32.7930   15.9590 N.3    46  THR46      -0.1218
     29  CA       -32.4780  -33.3140   15.3790 C.3    46  THR46       0.1862
     30  C        -33.4210  -33.8800   16.4480 C.2    46  THR46       0.2287
     31  O        -34.6100  -33.5560   16.4770 O.2    46  THR46      -0.2866
     32  CB       -32.1920  -34.4510   14.3710 C.3    46  THR46       0.1770
     33  OG1      -30.9860  -34.1740   13.6230 O.3    46  THR46      -0.2211
     34  CG2      -33.3720  -34.6280   13.4390 C.3    46  THR46       0.0375
     35  N        -38.0020  -40.6630   10.3680 N.3    76  PHE76      -0.1241
     36  CA       -36.8260  -40.3110    9.5680 C.3    76  PHE76       0.1605
     37  C        -37.1890  -40.7040    8.1200 C.2    76  PHE76       0.2264
     38  O        -37.0600  -41.8710    7.7260 O.2    76  PHE76      -0.2867
     39  CB       -35.6750  -41.1650   10.1360 C.3    76  PHE76       0.0534
     40  CG       -34.2930  -40.8990    9.5480 C.ar   76  PHE76      -0.0203
     41  CD1      -34.0890  -40.0890    8.4390 C.ar   76  PHE76      -0.0042
     42  CD2      -33.1820  -41.5270   10.1230 C.ar   76  PHE76      -0.0042
     43  CE1      -32.7970  -39.9030    7.9120 C.ar   76  PHE76      -0.0003
     44  CE2      -31.8880  -41.3580    9.5990 C.ar   76  PHE76      -0.0003
     45  CZ       -31.6940  -40.5410    8.4920 C.ar   76  PHE76      -0.0000
     46  N        -34.9680  -42.7670    5.5510 N.3    79  LEU79      -0.1245
     47  CA       -34.3440  -43.9660    6.0800 C.3    79  LEU79       0.1561
     48  C        -35.2090  -45.1840    5.7790 C.2    79  LEU79       0.2260
     49  O        -36.2450  -45.3870    6.4010 O.2    79  LEU79      -0.2867
     50  CB       -34.0210  -43.8880    7.5780 C.3    79  LEU79       0.0270
     51  CG       -33.1770  -45.1000    8.0490 C.3    79  LEU79       0.0019
     52  CD1      -31.8140  -45.1600    7.3320 C.3    79  LEU79       0.0001
     53  CD2      -32.9890  -45.1100    9.5470 C.3    79  LEU79       0.0001
     54  N        -38.7730  -35.8810    9.8710 N.3   101  LYS101     -0.1245
     55  CA       -37.3470  -35.6890   10.0460 C.3   101  LYS101      0.1561
     56  C        -36.6160  -35.9890    8.7320 C.2   101  LYS101      0.2260
     57  O        -36.9590  -36.9550    8.0250 O.2   101  LYS101     -0.2867
     58  CB       -36.8130  -36.6070   11.1630 C.3   101  LYS101      0.0271
     59  CG       -35.2900  -36.8160   11.1450 C.3   101  LYS101      0.0035
     60  CD       -34.8260  -37.8210   12.1890 C.3   101  LYS101      0.0206
     61  CE       -33.3700  -38.2330   11.9560 C.3   101  LYS101      0.1093
     62  NZ       -32.9070  -39.0460   13.1330 N.3   101  LYS101     -0.1314
     63  N        -32.3270  -35.6520    6.9140 N.3   103  HIS103     -0.1241
     64  CA       -30.9890  -35.1050    6.8390 C.3   103  HIS103      0.1621
     65  C        -30.5890  -34.7500    5.4080 C.2   103  HIS103      0.2264
     66  O        -29.4090  -34.4980    5.1480 O.2   103  HIS103     -0.2867
     67  CB       -29.9540  -36.0910    7.3870 C.3   103  HIS103      0.0745
     68  CG       -30.1220  -36.4520    8.8290 C.ar  103  HIS103      0.0817
     69  ND1      -30.2660  -35.5170    9.8300 N.ar  103  HIS103     -0.2268
     70  CD2      -30.0550  -37.6550    9.4480 C.ar  103  HIS103      0.1154
     71  CE1      -30.3190  -36.1320   11.0010 C.ar  103  HIS103      0.1986
     72  NE2      -30.1950  -37.4310   10.7960 N.ar  103  HIS103     -0.2212
     73  N        -21.0410  -41.5060   17.0200 N.3   137  PHE137     -0.1241
     74  CA       -22.2360  -42.0750   16.3940 C.3   137  PHE137      0.1605
     75  C        -21.9300  -43.1380   15.3240 C.2   137  PHE137      0.2264
     76  O        -22.5580  -44.1900   15.3090 O.2   137  PHE137     -0.2867
     77  CB       -23.0820  -40.9600   15.8030 C.3   137  PHE137      0.0534
     78  CG       -24.4620  -41.3840   15.4200 C.ar  137  PHE137     -0.0203
     79  CD1      -25.2910  -42.0390   16.3400 C.ar  137  PHE137     -0.0042
     80  CD2      -24.9410  -41.1260   14.1400 C.ar  137  PHE137     -0.0042
     81  CE1      -26.5810  -42.4160   15.9760 C.ar  137  PHE137     -0.0003
     82  CE2      -26.2280  -41.4910   13.7860 C.ar  137  PHE137     -0.0003
     83  CZ       -27.0420  -42.1350   14.7020 C.ar  137  PHE137     -0.0000
     84  N        -23.6980  -46.6610   15.7670 N.3   141  ALA141     -0.1245
     85  CA       -24.8200  -46.8730   14.8520 C.3   141  ALA141      0.1562
     86  C        -24.3370  -47.6480   13.6320 C.2   141  ALA141      0.2260
     87  O        -23.7670  -47.0730   12.6960 O.2   141  ALA141     -0.2867
     88  CB       -25.4390  -45.5380   14.4480 C.3   141  ALA141      0.0290
     89  N        -25.3570  -49.1140   10.9250 N.3   143  ILE143     -0.1231
     90  CA       -25.6660  -48.9360    9.5040 C.3   143  ILE143      0.1692
     91  C        -24.5570  -48.1590    8.7580 C.2   143  ILE143      0.2592
     92  O        -24.4000  -48.2980    7.5390 O.2   143  ILE143     -0.2718
     93  CB       -27.0500  -48.2570    9.3160 C.3   143  ILE143      0.0266
     94  CG1      -27.4990  -48.2880    7.8550 C.3   143  ILE143      0.0019
     95  CG2      -26.9930  -46.8530    9.7880 C.3   143  ILE143      0.0020
     96  CD1      -27.9040  -49.6770    7.3580 C.3   143  ILE143      0.0001
     97  N        -23.8020  -47.3430    9.4970 N.am  144  HIS144     -0.1976
     98  CA       -22.7020  -46.5480    8.9300 C.3   144  HIS144      0.1656
     99  C        -21.5170  -47.4360    8.5790 C.2   144  HIS144      0.2291
    100  O        -21.3310  -48.4620    9.2120 O.2   144  HIS144     -0.2864
    101  CB       -22.2100  -45.5230    9.9550 C.3   144  HIS144      0.0771
    102  CG       -23.2310  -44.4920   10.3110 C.ar  144  HIS144      0.0820
    103  ND1      -24.0780  -44.6320   11.3880 N.ar  144  HIS144     -0.2267
    104  CD2      -23.5450  -43.3080    9.7310 C.ar  144  HIS144      0.1154
    105  CE1      -24.8760  -43.5760   11.4530 C.ar  144  HIS144      0.1986
    106  NE2      -24.5750  -42.7620   10.4570 N.ar  144  HIS144     -0.2212
    107  N        -24.6240  -38.5360    4.1550 N.3   164  PHE164     -0.1241
    108  CA       -25.2860  -37.2360    3.8790 C.3   164  PHE164      0.1605
    109  C        -24.3710  -36.1290    3.3570 C.2   164  PHE164      0.2264
    110  O        -24.8140  -34.9970    3.1490 O.2   164  PHE164     -0.2867
    111  CB       -26.1700  -36.7790    5.0470 C.3   164  PHE164      0.0534
    112  CG       -27.3280  -37.7080    5.2940 C.ar  164  PHE164     -0.0203
    113  CD1      -27.2730  -38.6510    6.3220 C.ar  164  PHE164     -0.0042
    114  CD2      -28.4440  -37.6830    4.4470 C.ar  164  PHE164     -0.0042
    115  CE1      -28.3330  -39.5310    6.5290 C.ar  164  PHE164     -0.0003
    116  CE2      -29.5100  -38.5520    4.6540 C.ar  164  PHE164     -0.0003
    117  CZ       -29.4550  -39.4720    5.6920 C.ar  164  PHE164     -0.0000
    118  N        -33.0470  -43.4190   22.3090 N.3   235  TYR235     -0.1241
    119  CA       -32.7160  -44.4840   21.3480 C.3   235  TYR235      0.1605
    120  C        -32.3360  -45.8550   21.9470 C.2   235  TYR235      0.2264
    121  O        -31.9090  -46.7560   21.2080 O.2   235  TYR235     -0.2867
    122  CB       -31.6390  -44.0160   20.3610 C.3   235  TYR235      0.0534
    123  CG       -32.1980  -43.1600   19.2410 C.ar  235  TYR235     -0.0201
    124  CD1      -32.3590  -41.7840   19.3990 C.ar  235  TYR235     -0.0009
    125  CD2      -32.5660  -43.7340   18.0250 C.ar  235  TYR235     -0.0009
    126  CE1      -32.8830  -40.9910   18.3620 C.ar  235  TYR235      0.0417
    127  CE2      -33.0910  -42.9570   16.9800 C.ar  235  TYR235      0.0417
    128  CZ       -33.2400  -41.5900   17.1580 C.ar  235  TYR235      0.1957
    129  OH       -33.7490  -40.8290   16.1260 O.3   235  TYR235     -0.2866
    130  N        -33.8120  -49.1000   20.5000 N.3   238  MET238     -0.1245
    131  CA       -33.1970  -49.7070   19.3200 C.3   238  MET238      0.1570
    132  C        -32.5620  -51.0400   19.6700 C.2   238  MET238      0.2261
    133  O        -32.0450  -51.2130   20.7760 O.2   238  MET238     -0.2867
    134  CB       -32.0850  -48.8100   18.7870 C.3   238  MET238      0.0387
    135  CG       -32.5630  -47.6300   18.0140 C.3   238  MET238      0.0595
    136  SD       -32.9190  -48.0900   16.3220 S.3   238  MET238     -0.1393
    137  CE       -33.9490  -46.7050   15.8920 C.3   238  MET238      0.0692
    138  N        -28.5570  -52.5770   15.6220 N.3   242  GLU242     -0.1231
    139  CA       -28.6900  -51.2760   14.9460 C.3   242  GLU242      0.1699
    140  C        -27.9230  -50.1660   15.6710 C.2   242  GLU242      0.2592
    141  O        -27.1980  -49.3960   15.0450 O.2   242  GLU242     -0.2718
    142  CB       -30.1670  -50.8990   14.8170 C.3   242  GLU242      0.0402
    143  CG       -31.0400  -52.0230   14.2560 C.3   242  GLU242      0.1161
    144  CD       -32.4730  -51.9890   14.7640 C.2   242  GLU242      0.3649
    145  OE1      -32.7220  -51.5300   15.9060 O.co2 242  GLU242     -0.2457
    146  OE2      -33.3660  -52.4440   14.0170 O.co2 242  GLU242     -0.2457
    147  N        -28.1140  -50.0790   16.9840 N.am  243  MET243     -0.1979
    148  CA       -27.3680  -49.1420   17.8270 C.3   243  MET243      0.1605
    149  C        -26.8950  -49.7820   19.1340 C.2   243  MET243      0.2287
    150  O        -27.7070  -50.2370   19.9500 O.2   243  MET243     -0.2864
    151  CB       -28.2110  -47.9130   18.1500 C.3   243  MET243      0.0413
    152  CG       -28.4490  -46.9810   16.9870 C.3   243  MET243      0.0598
    153  SD       -29.2660  -45.4760   17.5740 S.3   243  MET243     -0.1393
    154  CE       -29.7490  -44.7340   16.0190 C.3   243  MET243      0.0692
    155  N        -26.3260  -42.7370   22.5660 N.3   250  PHE250     -0.1241
    156  CA       -26.8630  -41.7000   21.6690 C.3   250  PHE250      0.1605
    157  C        -26.8410  -40.3130   22.3330 C.2   250  PHE250      0.2264
    158  O        -26.3830  -39.3250   21.7390 O.2   250  PHE250     -0.2867
    159  CB       -28.2810  -42.0440   21.1870 C.3   250  PHE250      0.0534
    160  CG       -28.7710  -41.1360   20.0880 C.ar  250  PHE250     -0.0203
    161  CD1      -28.6680  -41.5180   18.7520 C.ar  250  PHE250     -0.0042
    162  CD2      -29.3050  -39.8820   20.3900 C.ar  250  PHE250     -0.0042
    163  CE1      -29.1020  -40.6570   17.7270 C.ar  250  PHE250     -0.0003
    164  CE2      -29.7380  -39.0290   19.3760 C.ar  250  PHE250     -0.0003
    165  CZ       -29.6340  -39.4150   18.0530 C.ar  250  PHE250     -0.0000
@<TRIPOS>BOND
     1     4     3    2
     2     3     2    1
     3     1     2    1
     4     2     5    1
     5   110   109    2
     6   109   108    1
     7   108   107    1
     8   108   111    1
     9     5     6    1
    10   114   116   ar
    11   114   112   ar
    12   116   117   ar
    13   111   112    1
    14    66    65    2
    15   112   113   ar
    16    65    64    1
    17     6     7   ar
    18     6     8   ar
    19    46    47    1
    20   117   115   ar
    21    48    47    1
    22    48    49    2
    23     7     9   ar
    24    47    50    1
    25     8    10   ar
    26   113   115   ar
    27    64    63    1
    28    64    67    1
    29     9    11   ar
    30    52    51    1
    31    96    94    1
    32    67    68    1
    33    10    11   ar
    34    92    91    2
    35    50    51    1
    36    38    37    2
    37    94    93    1
    38    43    41   ar
    39    43    45   ar
    40    57    56    2
    41    51    53    1
    42    37    36    1
    43    41    40   ar
    44    45    44   ar
    45    99    98    1
    46    99   100    2
    47    56    55    1
    48    91    97   am
    49    91    90    1
    50    68    70   ar
    51    68    69   ar
    52    18    17    1
    53    18    12    1
    54    98    97    1
    55    98   101    1
    56    17    16    1
    57    93    90    1
    58    93    95    1
    59    70    72   ar
    60    90    89    1
    61    40    42   ar
    62    40    39    1
    63    36    39    1
    64    36    35    1
    65    44    42   ar
    66   104   102   ar
    67   104   106   ar
    68    69    71   ar
    69    54    55    1
    70   101   102    1
    71    55    58    1
    72    12    13    1
    73   102   103   ar
    74   106   105   ar
    75    16    13    1
    76    72    71   ar
    77    59    58    1
    78    59    60    1
    79    13    14    1
    80   103   105   ar
    81    61    60    1
    82    61    62    1
    83    15    14    2
    84    14    19   am
    85    87    86    2
    86    34    32    1
    87    33    32    1
    88    86    85    1
    89    19    20    1
    90    82    80   ar
    91    82    83   ar
    92   146   144   ar
    93    80    78   ar
    94   143   144    1
    95   143   142    1
    96    32    29    1
    97    88    85    1
    98    24    25    1
    99    24    23    1
   100    83    81   ar
   101   144   145   ar
   102   142   139    1
   103    85    84    1
   104    25    26    1
   105   139   138    1
   106   139   140    1
   107    20    23    1
   108    20    21    1
   109   141   140    2
   110    76    75    2
   111    75    74    1
   112    21    22    2
   113    29    28    1
   114    29    30    1
   115    78    77    1
   116    78    79   ar
   117   140   147   am
   118    77    74    1
   119   137   136    1
   120    81    79   ar
   121   154   153    1
   122   129   128    1
   123   136   135    1
   124    26    27    1
   125    74    73    1
   126    30    31    2
   127   127   128   ar
   128   127   125   ar
   129   147   148    1
   130   152   153    1
   131   152   151    1
   132   128   126   ar
   133   163   165   ar
   134   163   161   ar
   135   148   151    1
   136   148   149    1
   137   135   134    1
   138   125   123   ar
   139   165   164   ar
   140   126   124   ar
   141   161   160   ar
   142   134   131    1
   143   149   150    2
   144   123   124   ar
   145   123   122    1
   146   131   132    1
   147   131   130    1
   148   164   162   ar
   149   132   133    2
   150   160   162   ar
   151   160   159    1
   152   122   119    1
   153   159   156    1
   154   121   120    2
   155   119   120    1
   156   119   118    1
   157   156   157    1
   158   156   155    1
   159   158   157    2
