@<TRIPOS>MOLECULE
tmp/2zyvA00.pdb
 207 200 0 0 0
SMALL
GASTEIGER

@<TRIPOS>ATOM
      1  N        -26.4100  -35.1180   13.6900 N.3    43  LYS43      -0.1231
      2  CA       -25.7710  -34.7890   14.9800 C.3    43  LYS43       0.1693
      3  C        -25.8850  -33.3210   15.3380 C.2    43  LYS43       0.2593
      4  O        -25.1180  -32.8270   16.1560 O.2    43  LYS43      -0.2718
      5  CB       -24.2780  -35.1980   15.0110 C.3    43  LYS43       0.0285
      6  CG       -23.9820  -36.6180   14.5570 C.3    43  LYS43       0.0035
      7  CD       -25.1150  -37.6100   14.8920 C.3    43  LYS43       0.0206
      8  CE       -25.1620  -38.0000   16.3520 C.3    43  LYS43       0.1093
      9  NZ       -26.3840  -38.8480   16.5720 N.3    43  LYS43      -0.1314
     10  N        -26.8420  -32.6220   14.7320 N.am   44  SER44      -0.1938
     11  CA       -26.9350  -31.1710   14.9310 C.3    44  SER44       0.2055
     12  C        -28.0650  -30.7330   15.8730 C.2    44  SER44       0.2644
     13  O        -28.2510  -29.5410   16.1060 O.2    44  SER44      -0.2714
     14  CB       -27.0370  -30.4460   13.5790 C.3    44  SER44       0.2130
     15  OG       -25.8990  -30.7510   12.7880 O.3    44  SER44      -0.2179
     16  N        -28.7960  -31.6950   16.4320 N.am   45  GLY45      -0.1939
     17  CA       -29.8810  -31.3780   17.3870 C.3    45  GLY45       0.2014
     18  C        -31.2390  -31.8430   16.8950 C.2    45  GLY45       0.2640
     19  O        -32.2750  -31.3510   17.3450 O.2    45  GLY45      -0.2714
     20  N        -31.2430  -32.7930   15.9590 N.am   46  THR46      -0.1936
     21  CA       -32.4780  -33.3140   15.3790 C.3    46  THR46       0.2028
     22  C        -33.4210  -33.8800   16.4480 C.2    46  THR46       0.2643
     23  O        -34.6100  -33.5560   16.4770 O.2    46  THR46      -0.2714
     24  CB       -32.1920  -34.4510   14.3710 C.3    46  THR46       0.1808
     25  OG1      -30.9860  -34.1740   13.6230 O.3    46  THR46      -0.2208
     26  CG2      -33.3720  -34.6280   13.4390 C.3    46  THR46       0.0379
     27  N        -32.8790  -34.7300   17.3200 N.am   47  THR47      -0.1936
     28  CA       -33.7090  -35.4090   18.3250 C.3    47  THR47       0.2028
     29  C        -34.2550  -34.3940   19.3180 C.2    47  THR47       0.2642
     30  O        -35.4310  -34.4690   19.7310 O.2    47  THR47      -0.2714
     31  CB       -32.8990  -36.5240   19.0210 C.3    47  THR47       0.1808
     32  OG1      -32.3240  -37.3640   18.0050 O.3    47  THR47      -0.2208
     33  CG2      -33.7930  -37.3510   19.9250 C.3    47  THR47       0.0379
     34  N        -33.3910  -33.4550   19.6990 N.am   48  TRP48      -0.1973
     35  CA       -33.7290  -32.3800   20.6340 C.3    48  TRP48       0.1640
     36  C        -34.9160  -31.5910   20.1130 C.2    48  TRP48       0.2290
     37  O        -35.9420  -31.4770   20.7970 O.2    48  TRP48      -0.2864
     38  CB       -32.5030  -31.4810   20.8380 C.3    48  TRP48       0.0576
     39  CG       -32.5740  -30.5130   21.9960 C.ar   48  TRP48       0.0006
     40  CD1      -33.5970  -30.3480   22.9000 C.ar   48  TRP48       0.0946
     41  CD2      -31.5550  -29.5950   22.3690 C.ar   48  TRP48       0.0152
     42  NE1      -33.2660  -29.3670   23.8220 N.ar   48  TRP48      -0.2442
     43  CE2      -32.0140  -28.8910   23.5170 C.ar   48  TRP48       0.0810
     44  CE3      -30.2890  -29.2930   21.8470 C.ar   48  TRP48       0.0012
     45  CZ2      -31.2470  -27.9140   24.1460 C.ar   48  TRP48       0.0191
     46  CZ3      -29.5250  -28.3130   22.4750 C.ar   48  TRP48       0.0001
     47  CH2      -30.0090  -27.6390   23.6140 C.ar   48  TRP48       0.0015
     48  N        -38.7730  -35.8810    9.8710 N.3   101  LYS101     -0.1245
     49  CA       -37.3470  -35.6890   10.0460 C.3   101  LYS101      0.1561
     50  C        -36.6160  -35.9890    8.7320 C.2   101  LYS101      0.2260
     51  O        -36.9590  -36.9550    8.0250 O.2   101  LYS101     -0.2867
     52  CB       -36.8130  -36.6070   11.1630 C.3   101  LYS101      0.0271
     53  CG       -35.2900  -36.8160   11.1450 C.3   101  LYS101      0.0035
     54  CD       -34.8260  -37.8210   12.1890 C.3   101  LYS101      0.0206
     55  CE       -33.3700  -38.2330   11.9560 C.3   101  LYS101      0.1093
     56  NZ       -32.9070  -39.0460   13.1330 N.3   101  LYS101     -0.1314
     57  N        -32.3270  -35.6520    6.9140 N.3   103  HIS103     -0.1241
     58  CA       -30.9890  -35.1050    6.8390 C.3   103  HIS103      0.1621
     59  C        -30.5890  -34.7500    5.4080 C.2   103  HIS103      0.2264
     60  O        -29.4090  -34.4980    5.1480 O.2   103  HIS103     -0.2867
     61  CB       -29.9540  -36.0910    7.3870 C.3   103  HIS103      0.0745
     62  CG       -30.1220  -36.4520    8.8290 C.ar  103  HIS103      0.0817
     63  ND1      -30.2660  -35.5170    9.8300 N.ar  103  HIS103     -0.2268
     64  CD2      -30.0550  -37.6550    9.4480 C.ar  103  HIS103      0.1154
     65  CE1      -30.3190  -36.1320   11.0010 C.ar  103  HIS103      0.1986
     66  NE2      -30.1950  -37.4310   10.7960 N.ar  103  HIS103     -0.2212
     67  N        -25.3440  -26.7600   13.7620 N.3   125  ARG125     -0.1245
     68  CA       -24.4900  -26.8600   14.9310 C.3   125  ARG125      0.1563
     69  C        -23.0590  -26.6720   14.4410 C.2   125  ARG125      0.2260
     70  O        -22.7430  -27.0190   13.2970 O.2   125  ARG125     -0.2867
     71  CB       -24.6680  -28.2420   15.5520 C.3   125  ARG125      0.0307
     72  CG       -23.8390  -28.4870   16.8010 C.3   125  ARG125      0.0489
     73  CD       -24.0730  -29.9040   17.3200 C.3   125  ARG125      0.2205
     74  NE       -23.5780  -30.0740   18.7000 N.pl3 125  ARG125     -0.0865
     75  CZ       -23.5170  -31.2320   19.3420 C.cat 125  ARG125      0.5346
     76  NH1      -23.8770  -32.3620   18.7500 N.pl3 125  ARG125      0.1354
     77  NH2      -23.0810  -31.2650   20.5940 N.pl3 125  ARG125      0.1354
     78  N        -18.0020  -29.5450   16.7680 N.3   129  ASP129     -0.1239
     79  CA       -18.8190  -30.3760   17.6470 C.3   129  ASP129      0.1674
     80  C        -19.5750  -31.4420   16.8580 C.2   129  ASP129      0.2266
     81  O        -19.7430  -32.5560   17.3480 O.2   129  ASP129     -0.2867
     82  CB       -19.8000  -29.5290   18.4860 C.3   129  ASP129      0.1410
     83  CG       -19.1170  -28.8090   19.6370 C.2   129  ASP129      0.3668
     84  OD1      -17.9980  -29.2250   20.0360 O.co2 129  ASP129     -0.2456
     85  OD2      -19.6970  -27.8250   20.1450 O.co2 129  ASP129     -0.2456
     86  N        -19.3270  -35.5550   17.5360 N.3   133  SER133     -0.1217
     87  CA       -20.5730  -36.3090   17.7480 C.3   133  SER133      0.1889
     88  C        -20.7700  -37.4100   16.7100 C.2   133  SER133      0.2288
     89  O        -21.2000  -38.5230   17.0370 O.2   133  SER133     -0.2866
     90  CB       -21.7750  -35.3490   17.7790 C.3   133  SER133      0.2089
     91  OG       -22.9900  -36.0520   18.0490 O.3   133  SER133     -0.2183
     92  N        -21.0410  -41.5060   17.0200 N.3   137  PHE137     -0.1241
     93  CA       -22.2360  -42.0750   16.3940 C.3   137  PHE137      0.1605
     94  C        -21.9300  -43.1380   15.3240 C.2   137  PHE137      0.2264
     95  O        -22.5580  -44.1900   15.3090 O.2   137  PHE137     -0.2867
     96  CB       -23.0820  -40.9600   15.8030 C.3   137  PHE137      0.0534
     97  CG       -24.4620  -41.3840   15.4200 C.ar  137  PHE137     -0.0203
     98  CD1      -25.2910  -42.0390   16.3400 C.ar  137  PHE137     -0.0042
     99  CD2      -24.9410  -41.1260   14.1400 C.ar  137  PHE137     -0.0042
    100  CE1      -26.5810  -42.4160   15.9760 C.ar  137  PHE137     -0.0003
    101  CE2      -26.2280  -41.4910   13.7860 C.ar  137  PHE137     -0.0003
    102  CZ       -27.0420  -42.1350   14.7020 C.ar  137  PHE137     -0.0000
    103  N        -27.8690  -24.9440   17.3430 N.3   188  TYR188     -0.1241
    104  CA       -27.7360  -25.7810   18.5270 C.3   188  TYR188      0.1605
    105  C        -27.1830  -24.9750   19.6960 C.2   188  TYR188      0.2264
    106  O        -27.6720  -25.0880   20.8140 O.2   188  TYR188     -0.2867
    107  CB       -26.8190  -26.9650   18.2070 C.3   188  TYR188      0.0534
    108  CG       -26.5780  -27.9090   19.3570 C.ar  188  TYR188     -0.0201
    109  CD1      -27.3070  -29.1050   19.4770 C.ar  188  TYR188     -0.0009
    110  CD2      -25.6030  -27.6220   20.3230 C.ar  188  TYR188     -0.0009
    111  CE1      -27.0570  -29.9910   20.5440 C.ar  188  TYR188      0.0417
    112  CE2      -25.3690  -28.4970   21.4000 C.ar  188  TYR188      0.0417
    113  CZ       -26.0880  -29.6710   21.4910 C.ar  188  TYR188      0.1957
    114  OH       -25.8290  -30.5110   22.5520 O.3   188  TYR188     -0.2866
    115  N        -28.6080  -24.2570   23.5080 N.3   192  LYS192     -0.1245
    116  CA       -27.8370  -24.5190   24.7270 C.3   192  LYS192      0.1561
    117  C        -27.8510  -23.3100   25.6580 C.2   192  LYS192      0.2260
    118  O        -28.0770  -23.4370   26.8660 O.2   192  LYS192     -0.2867
    119  CB       -26.3890  -24.8770   24.3770 C.3   192  LYS192      0.0271
    120  CG       -26.2080  -26.3100   23.9170 C.3   192  LYS192      0.0035
    121  CD       -26.5670  -27.3360   25.0140 C.3   192  LYS192      0.0206
    122  CE       -25.6970  -27.2130   26.2510 C.3   192  LYS192      0.1093
    123  NZ       -25.9660  -28.3240   27.1980 N.3   192  LYS192     -0.1314
    124  N        -37.4810  -31.2080   27.7320 N.3   222  SER222     -0.1217
    125  CA       -36.5850  -31.2180   26.5630 C.3   222  SER222      0.1889
    126  C        -35.1210  -30.9900   26.9710 C.2   222  SER222      0.2288
    127  O        -34.2190  -30.9120   26.1180 O.2   222  SER222     -0.2866
    128  CB       -37.0710  -30.2010   25.5070 C.3   222  SER222      0.2089
    129  OG       -36.9980  -28.8680   25.9980 O.3   222  SER222     -0.2183
    130  N        -31.4100  -31.8690   28.4510 N.3   224  PHE224     -0.1241
    131  CA       -30.5580  -33.0320   28.2300 C.3   224  PHE224      0.1605
    132  C        -30.6940  -34.0560   29.3560 C.2   224  PHE224      0.2264
    133  O        -30.8160  -35.2550   29.1010 O.2   224  PHE224     -0.2867
    134  CB       -29.0890  -32.6340   28.0550 C.3   224  PHE224      0.0534
    135  CG       -28.1930  -33.7980   27.7630 C.ar  224  PHE224     -0.0203
    136  CD1      -28.2160  -34.4100   26.5130 C.ar  224  PHE224     -0.0042
    137  CD2      -27.3430  -34.3090   28.7530 C.ar  224  PHE224     -0.0042
    138  CE1      -27.3940  -35.5070   26.2410 C.ar  224  PHE224     -0.0003
    139  CE2      -26.5190  -35.4120   28.4960 C.ar  224  PHE224     -0.0003
    140  CZ       -26.5420  -36.0110   27.2330 C.ar  224  PHE224     -0.0000
    141  N        -34.0630  -35.8880   28.8830 N.3   227  MET227     -0.1245
    142  CA       -34.0790  -36.6960   27.6560 C.3   227  MET227      0.1570
    143  C        -33.1130  -37.8760   27.6770 C.2   227  MET227      0.2261
    144  O        -33.4270  -38.9380   27.1350 O.2   227  MET227     -0.2867
    145  CB       -33.8200  -35.8310   26.4180 C.3   227  MET227      0.0387
    146  CG       -35.0160  -34.9470   26.0490 C.3   227  MET227      0.0595
    147  SD       -34.7340  -34.0050   24.5380 S.3   227  MET227     -0.1393
    148  CE       -34.7960  -35.3100   23.2970 C.3   227  MET227      0.0692
    149  N        -26.3260  -42.7370   22.5660 N.3   250  PHE250     -0.1227
    150  CA       -26.8630  -41.7000   21.6690 C.3   250  PHE250      0.1736
    151  C        -26.8410  -40.3130   22.3330 C.2   250  PHE250      0.2595
    152  O        -26.3830  -39.3250   21.7390 O.2   250  PHE250     -0.2718
    153  CB       -28.2810  -42.0440   21.1870 C.3   250  PHE250      0.0547
    154  CG       -28.7710  -41.1360   20.0880 C.ar  250  PHE250     -0.0202
    155  CD1      -28.6680  -41.5180   18.7520 C.ar  250  PHE250     -0.0042
    156  CD2      -29.3050  -39.8820   20.3900 C.ar  250  PHE250     -0.0042
    157  CE1      -29.1020  -40.6570   17.7270 C.ar  250  PHE250     -0.0003
    158  CE2      -29.7380  -39.0290   19.3760 C.ar  250  PHE250     -0.0003
    159  CZ       -29.6340  -39.4150   18.0530 C.ar  250  PHE250     -0.0000
    160  N        -27.3530  -40.2520   23.5590 N.am  251  MET251     -0.1965
    161  CA       -27.3010  -39.0430   24.3720 C.3   251  MET251      0.1736
    162  C        -25.9470  -39.0220   25.0750 C.2   251  MET251      0.2616
    163  O        -25.7920  -39.4900   26.2200 O.2   251  MET251     -0.2715
    164  CB       -28.4660  -39.0370   25.3550 C.3   251  MET251      0.0427
    165  CG       -29.8050  -39.1140   24.6560 C.3   251  MET251      0.0599
    166  SD       -30.1430  -37.5450   23.8780 S.3   251  MET251     -0.1393
    167  CE       -31.7110  -37.8670   23.0680 C.3   251  MET251      0.0692
    168  N        -24.9620  -38.4750   24.3690 N.am  252  ARG252     -0.1963
    169  CA       -23.5570  -38.6980   24.7090 C.3   252  ARG252      0.1729
    170  C        -23.0670  -37.7210   25.7830 C.2   252  ARG252      0.2616
    171  O        -22.8000  -38.1260   26.9270 O.2   252  ARG252     -0.2715
    172  CB       -22.7120  -38.6500   23.4270 C.3   252  ARG252      0.0348
    173  CG       -21.2620  -39.1380   23.5870 C.3   252  ARG252      0.0492
    174  CD       -20.4760  -38.9380   22.2820 C.3   252  ARG252      0.2205
    175  NE       -20.4800  -37.5260   21.8800 N.pl3 252  ARG252     -0.0865
    176  CZ       -19.5150  -36.6590   22.1720 C.cat 252  ARG252      0.5346
    177  NH1      -18.4360  -37.0580   22.8400 N.pl3 252  ARG252      0.1354
    178  NH2      -19.6140  -35.3960   21.7700 N.pl3 252  ARG252      0.1354
    179  N        -22.9740  -36.4390   25.4340 N.am  253  LYS253     -0.1963
    180  CA       -22.5880  -35.4050   26.3940 C.3   253  LYS253      0.1728
    181  C        -23.5700  -34.2420   26.4150 C.2   253  LYS253      0.2617
    182  O        -23.8170  -33.6610   27.4710 O.2   253  LYS253     -0.2715
    183  CB       -21.1700  -34.8850   26.1210 C.3   253  LYS253      0.0311
    184  CG       -20.0840  -35.8640   26.5130 C.3   253  LYS253      0.0038
    185  CD       -18.7230  -35.1830   26.5620 C.3   253  LYS253      0.0206
    186  CE       -17.6040  -36.2110   26.4450 C.3   253  LYS253      0.1093
    187  NZ       -16.2730  -35.5300   26.5830 N.3   253  LYS253     -0.1314
    188  N        -24.1140  -33.8980   25.2460 N.am  254  GLY254     -0.1940
    189  CA       -25.1130  -32.8360   25.1400 C.3   254  GLY254      0.2014
    190  C        -24.6370  -31.4360   25.4980 C.2   254  GLY254      0.2638
    191  O        -25.4220  -30.6320   26.0120 O.2   254  GLY254     -0.2714
    192  N        -23.3620  -31.1420   25.2220 N.am  255  ILE255     -0.1977
    193  CA       -22.7720  -29.8210   25.4710 C.3   255  ILE255      0.1596
    194  C        -22.3020  -29.1600   24.1620 C.2   255  ILE255      0.2287
    195  O        -22.3270  -29.7770   23.0820 O.2   255  ILE255     -0.2864
    196  CB       -21.5500  -29.8880   26.4590 C.3   255  ILE255      0.0276
    197  CG1      -20.3570  -30.6190   25.8170 C.3   255  ILE255      0.0022
    198  CG2      -21.9440  -30.5530   27.7850 C.3   255  ILE255      0.0022
    199  CD1      -19.0460  -30.5030   26.6060 C.3   255  ILE255      0.0001
    200  N        -17.3620  -29.7510   23.1410 N.3   258  ASP258     -0.1239
    201  CA       -16.6820  -31.0430   23.2980 C.3   258  ASP258      0.1674
    202  C        -15.5530  -31.2390   22.2870 C.2   258  ASP258      0.2266
    203  O        -14.6860  -32.0950   22.4870 O.2   258  ASP258     -0.2867
    204  CB       -17.6250  -32.2400   23.1840 C.3   258  ASP258      0.1410
    205  CG       -16.9840  -33.5250   23.7020 C.2   258  ASP258      0.3668
    206  OD1      -16.3920  -33.4810   24.8020 O.co2 258  ASP258     -0.2456
    207  OD2      -17.0710  -34.5700   23.0250 O.co2 258  ASP258     -0.2456
@<TRIPOS>BOND
     1    60    59    2
     2    59    58    1
     3    58    57    1
     4    58    61    1
     5    61    62    1
     6    51    50    2
     7    50    49    1
     8    62    64   ar
     9    62    63   ar
    10    64    66   ar
    11    63    65   ar
    12    48    49    1
    13    49    52    1
    14    66    65   ar
    15    53    52    1
    16    53    54    1
    17    55    54    1
    18    55    56    1
    19    15    14    1
    20    70    69    2
    21    26    24    1
    22    14    11    1
    23    25    24    1
    24     1     2    1
    25    67    68    1
    26   101    99   ar
    27   101   102   ar
    28    99    97   ar
    29    24    21    1
    30    69    68    1
    31     6     7    1
    32     6     5    1
    33   102   100   ar
    34    10    11    1
    35    10     3   am
    36     7     8    1
    37    11    12    1
    38    68    71    1
    39     2     5    1
    40     2     3    1
    41    95    94    2
    42    94    93    1
    43     3     4    2
    44    21    20    1
    45    21    22    1
    46    97    96    1
    47    97    98   ar
    48    71    72    1
    49    96    93    1
    50    12    13    2
    51    12    16   am
    52    20    18   am
    53   100    98   ar
    54     8     9    1
    55    93    92    1
    56    16    17    1
    57    22    23    2
    58    22    27   am
    59    88    89    2
    60    88    87    1
    61    78    79    1
    62    72    73    1
    63    80    81    2
    64    80    79    1
    65    18    19    2
    66    18    17    1
    67    27    28    1
    68    73    74    1
    69   103   104    1
    70    86    87    1
    71    79    82    1
    72   157   159   ar
    73   157   155   ar
    74    87    90    1
    75    90    91    1
    76    32    31    1
    77   159   158   ar
    78   107   104    1
    79   107   108    1
    80    28    31    1
    81    28    29    1
    82    82    83    1
    83   104   105    1
    84    74    75    2
    85    76    75    1
    86   155   154   ar
    87    31    33    1
    88    29    34   am
    89    29    30    2
    90    75    77    1
    91   108   109   ar
    92   108   110   ar
    93   158   156   ar
    94   109   111   ar
    95    83    84   ar
    96    83    85   ar
    97   105   106    2
    98    34    35    1
    99   154   156   ar
   100   154   153    1
   101    36    35    1
   102    36    37    2
   103   110   112   ar
   104   111   113   ar
   105    35    38    1
   106    38    39    1
   107   153   150    1
   108   112   113   ar
   109   113   114    1
   110   150   151    1
   111   150   149    1
   112   152   151    2
   113   178   176    1
   114    44    41   ar
   115    44    46   ar
   116   175   176    2
   117   175   174    1
   118    39    41   ar
   119    39    40   ar
   120   176   177    1
   121   174   173    1
   122   202   203    2
   123   202   201    1
   124   151   160   am
   125    41    43   ar
   126    46    47   ar
   127    40    42   ar
   128   207   205   ar
   129   167   166    1
   130   195   194    2
   131   200   201    1
   132   204   201    1
   133   204   205    1
   134   148   147    1
   135   172   173    1
   136   172   169    1
   137   115   116    1
   138    43    42   ar
   139    43    45   ar
   140   160   161    1
   141    47    45   ar
   142   205   206   ar
   143   166   165    1
   144   120   119    1
   145   120   121    1
   146   194   193    1
   147   168   169    1
   148   168   162   am
   149   161   162    1
   150   161   164    1
   151   119   116    1
   152   147   146    1
   153   165   164    1
   154   169   170    1
   155   116   117    1
   156   121   122    1
   157   162   163    2
   158   189   188    1
   159   189   190    1
   160   192   193    1
   161   192   190   am
   162   188   181   am
   163   179   170   am
   164   179   180    1
   165   193   196    1
   166   190   191    2
   167   128   129    1
   168   128   125    1
   169   117   118    2
   170   170   171    2
   171   197   196    1
   172   197   199    1
   173   146   145    1
   174   127   126    2
   175   183   180    1
   176   183   184    1
   177   138   136   ar
   178   138   140   ar
   179   122   123    1
   180   180   181    1
   181   181   182    2
   182   145   142    1
   183   186   185    1
   184   186   187    1
   185   196   198    1
   186   184   185    1
   187   136   135   ar
   188   125   126    1
   189   125   124    1
   190   144   143    2
   191   140   139   ar
   192   142   143    1
   193   142   141    1
   194   135   134    1
   195   135   137   ar
   196   134   131    1
   197   131   130    1
   198   131   132    1
   199   139   137   ar
   200   133   132    2
