@<TRIPOS>MOLECULE
tmp/2zyvA02.pdb
 127 119 0 0 0
SMALL
GASTEIGER

@<TRIPOS>ATOM
      1  N        -25.5800  -54.1340    7.7670 N.3     3  PHE3       -0.1241
      2  CA       -24.7120  -53.1980    8.4930 C.3     3  PHE3        0.1605
      3  C        -23.2950  -53.0490    7.9190 C.2     3  PHE3        0.2264
      4  O        -22.8010  -53.9240    7.1910 O.2     3  PHE3       -0.2867
      5  CB       -24.6730  -53.5830    9.9780 C.3     3  PHE3        0.0534
      6  CG       -26.0350  -53.7180   10.5980 C.ar    3  PHE3       -0.0203
      7  CD1      -26.5230  -54.9700   10.9670 C.ar    3  PHE3       -0.0042
      8  CD2      -26.8490  -52.5970   10.7860 C.ar    3  PHE3       -0.0042
      9  CE1      -27.8000  -55.1020   11.5300 C.ar    3  PHE3       -0.0003
     10  CE2      -28.1220  -52.7190   11.3470 C.ar    3  PHE3       -0.0003
     11  CZ       -28.5970  -53.9790   11.7190 C.ar    3  PHE3       -0.0000
     12  N        -38.2630  -42.0380   17.1500 N.3    71  TYR71      -0.1241
     13  CA       -38.0740  -42.4180   15.7430 C.3    71  TYR71       0.1605
     14  C        -39.3340  -42.9710   15.0720 C.2    71  TYR71       0.2264
     15  O        -39.3640  -43.1530   13.8590 O.2    71  TYR71      -0.2867
     16  CB       -36.8730  -43.3520   15.5560 C.3    71  TYR71       0.0534
     17  CG       -36.8670  -44.5620   16.4440 C.ar   71  TYR71      -0.0201
     18  CD1      -37.5520  -45.7200   16.0720 C.ar   71  TYR71      -0.0009
     19  CD2      -36.1560  -44.5640   17.6450 C.ar   71  TYR71      -0.0009
     20  CE1      -37.5460  -46.8540   16.8810 C.ar   71  TYR71       0.0417
     21  CE2      -36.1350  -45.7050   18.4610 C.ar   71  TYR71       0.0417
     22  CZ       -36.8370  -46.8410   18.0610 C.ar   71  TYR71       0.1957
     23  OH       -36.8430  -47.9700   18.8540 O.3    71  TYR71      -0.2866
     24  N        -38.0020  -40.6630   10.3680 N.3    76  PHE76      -0.1241
     25  CA       -36.8260  -40.3110    9.5680 C.3    76  PHE76       0.1605
     26  C        -37.1890  -40.7040    8.1200 C.2    76  PHE76       0.2264
     27  O        -37.0600  -41.8710    7.7260 O.2    76  PHE76      -0.2867
     28  CB       -35.6750  -41.1650   10.1360 C.3    76  PHE76       0.0534
     29  CG       -34.2930  -40.8990    9.5480 C.ar   76  PHE76      -0.0203
     30  CD1      -34.0890  -40.0890    8.4390 C.ar   76  PHE76      -0.0042
     31  CD2      -33.1820  -41.5270   10.1230 C.ar   76  PHE76      -0.0042
     32  CE1      -32.7970  -39.9030    7.9120 C.ar   76  PHE76      -0.0003
     33  CE2      -31.8880  -41.3580    9.5990 C.ar   76  PHE76      -0.0003
     34  CZ       -31.6940  -40.5410    8.4920 C.ar   76  PHE76      -0.0000
     35  N        -34.9680  -42.7670    5.5510 N.3    79  LEU79      -0.1245
     36  CA       -34.3440  -43.9660    6.0800 C.3    79  LEU79       0.1561
     37  C        -35.2090  -45.1840    5.7790 C.2    79  LEU79       0.2260
     38  O        -36.2450  -45.3870    6.4010 O.2    79  LEU79      -0.2867
     39  CB       -34.0210  -43.8880    7.5780 C.3    79  LEU79       0.0270
     40  CG       -33.1770  -45.1000    8.0490 C.3    79  LEU79       0.0019
     41  CD1      -31.8140  -45.1600    7.3320 C.3    79  LEU79       0.0001
     42  CD2      -32.9890  -45.1100    9.5470 C.3    79  LEU79       0.0001
     43  N        -34.6200  -49.3370    5.2810 N.3    81  ILE81      -0.1245
     44  CA       -33.6790  -50.4480    5.4420 C.3    81  ILE81       0.1561
     45  C        -34.5210  -51.7170    5.3880 C.2    81  ILE81       0.2260
     46  O        -35.4080  -51.8910    6.2290 O.2    81  ILE81      -0.2867
     47  CB       -32.9440  -50.4200    6.8090 C.3    81  ILE81       0.0252
     48  CG1      -32.2440  -49.0790    7.0640 C.3    81  ILE81       0.0019
     49  CG2      -31.9680  -51.6040    6.9270 C.3    81  ILE81       0.0019
     50  CD1      -31.6220  -48.9850    8.4560 C.3    81  ILE81       0.0001
     51  N        -36.1360  -53.7390    8.4060 N.3    84  ILE84      -0.1231
     52  CA       -35.9210  -52.9450    9.6090 C.3    84  ILE84       0.1692
     53  C        -36.8610  -51.7400    9.7200 C.2    84  ILE84       0.2592
     54  O        -37.5500  -51.5830   10.7190 O.2    84  ILE84      -0.2718
     55  CB       -34.4370  -52.4880    9.7500 C.3    84  ILE84       0.0266
     56  CG1      -33.4710  -53.6900    9.7830 C.3    84  ILE84       0.0019
     57  CG2      -34.2690  -51.5870   10.9740 C.3    84  ILE84       0.0020
     58  CD1      -33.5970  -54.5770   10.9920 C.3    84  ILE84       0.0001
     59  N        -36.8800  -50.8780    8.7060 N.am   85  THR85      -0.1953
     60  CA       -37.6490  -49.6330    8.7950 C.3    85  THR85       0.1897
     61  C        -37.9040  -49.0430    7.4120 C.2    85  THR85       0.2313
     62  O        -37.1450  -49.2930    6.4730 O.2    85  THR85      -0.2863
     63  CB       -36.9250  -48.5660    9.7070 C.3    85  THR85       0.1794
     64  OG1      -37.7960  -47.4470    9.9360 O.3    85  THR85      -0.2208
     65  CG2      -35.6250  -48.0790    9.0690 C.3    85  THR85       0.0378
     66  N        -43.9740  -45.2390    6.9080 N.3    90  MET90      -0.1245
     67  CA       -44.3900  -44.7690    8.2310 C.3    90  MET90       0.1570
     68  C        -45.1340  -43.4430    8.1230 C.2    90  MET90       0.2261
     69  O        -46.2110  -43.2700    8.7020 O.2    90  MET90      -0.2867
     70  CB       -43.1860  -44.6310    9.1670 C.3    90  MET90       0.0387
     71  CG       -42.4550  -45.9440    9.4180 C.3    90  MET90       0.0595
     72  SD       -40.8740  -45.6980   10.2700 S.3    90  MET90      -0.1393
     73  CE       -41.5110  -44.9930   11.7920 C.3    90  MET90       0.0692
     74  N        -38.7730  -35.8810    9.8710 N.3   101  LYS101     -0.1245
     75  CA       -37.3470  -35.6890   10.0460 C.3   101  LYS101      0.1561
     76  C        -36.6160  -35.9890    8.7320 C.2   101  LYS101      0.2260
     77  O        -36.9590  -36.9550    8.0250 O.2   101  LYS101     -0.2867
     78  CB       -36.8130  -36.6070   11.1630 C.3   101  LYS101      0.0271
     79  CG       -35.2900  -36.8160   11.1450 C.3   101  LYS101      0.0035
     80  CD       -34.8260  -37.8210   12.1890 C.3   101  LYS101      0.0206
     81  CE       -33.3700  -38.2330   11.9560 C.3   101  LYS101      0.1093
     82  NZ       -32.9070  -39.0460   13.1330 N.3   101  LYS101     -0.1314
     83  N        -25.3570  -49.1140   10.9250 N.3   143  ILE143     -0.1245
     84  CA       -25.6660  -48.9360    9.5040 C.3   143  ILE143      0.1561
     85  C        -24.5570  -48.1590    8.7580 C.2   143  ILE143      0.2260
     86  O        -24.4000  -48.2980    7.5390 O.2   143  ILE143     -0.2867
     87  CB       -27.0500  -48.2570    9.3160 C.3   143  ILE143      0.0252
     88  CG1      -27.4990  -48.2880    7.8550 C.3   143  ILE143      0.0019
     89  CG2      -26.9930  -46.8530    9.7880 C.3   143  ILE143      0.0019
     90  CD1      -27.9040  -49.6770    7.3580 C.3   143  ILE143      0.0001
     91  N        -33.0470  -43.4190   22.3090 N.3   235  TYR235     -0.1241
     92  CA       -32.7160  -44.4840   21.3480 C.3   235  TYR235      0.1605
     93  C        -32.3360  -45.8550   21.9470 C.2   235  TYR235      0.2264
     94  O        -31.9090  -46.7560   21.2080 O.2   235  TYR235     -0.2867
     95  CB       -31.6390  -44.0160   20.3610 C.3   235  TYR235      0.0534
     96  CG       -32.1980  -43.1600   19.2410 C.ar  235  TYR235     -0.0201
     97  CD1      -32.3590  -41.7840   19.3990 C.ar  235  TYR235     -0.0009
     98  CD2      -32.5660  -43.7340   18.0250 C.ar  235  TYR235     -0.0009
     99  CE1      -32.8830  -40.9910   18.3620 C.ar  235  TYR235      0.0417
    100  CE2      -33.0910  -42.9570   16.9800 C.ar  235  TYR235      0.0417
    101  CZ       -33.2400  -41.5900   17.1580 C.ar  235  TYR235      0.1957
    102  OH       -33.7490  -40.8290   16.1260 O.3   235  TYR235     -0.2866
    103  N        -33.8120  -49.1000   20.5000 N.3   238  MET238     -0.1245
    104  CA       -33.1970  -49.7070   19.3200 C.3   238  MET238      0.1570
    105  C        -32.5620  -51.0400   19.6700 C.2   238  MET238      0.2261
    106  O        -32.0450  -51.2130   20.7760 O.2   238  MET238     -0.2867
    107  CB       -32.0850  -48.8100   18.7870 C.3   238  MET238      0.0387
    108  CG       -32.5630  -47.6300   18.0140 C.3   238  MET238      0.0595
    109  SD       -32.9190  -48.0900   16.3220 S.3   238  MET238     -0.1393
    110  CE       -33.9490  -46.7050   15.8920 C.3   238  MET238      0.0692
    111  N        -28.5570  -52.5770   15.6220 N.3   242  GLU242     -0.1231
    112  CA       -28.6900  -51.2760   14.9460 C.3   242  GLU242      0.1699
    113  C        -27.9230  -50.1660   15.6710 C.2   242  GLU242      0.2592
    114  O        -27.1980  -49.3960   15.0450 O.2   242  GLU242     -0.2718
    115  CB       -30.1670  -50.8990   14.8170 C.3   242  GLU242      0.0402
    116  CG       -31.0400  -52.0230   14.2560 C.3   242  GLU242      0.1161
    117  CD       -32.4730  -51.9890   14.7640 C.2   242  GLU242      0.3649
    118  OE1      -32.7220  -51.5300   15.9060 O.co2 242  GLU242     -0.2457
    119  OE2      -33.3660  -52.4440   14.0170 O.co2 242  GLU242     -0.2457
    120  N        -28.1140  -50.0790   16.9840 N.am  243  MET243     -0.1979
    121  CA       -27.3680  -49.1420   17.8270 C.3   243  MET243      0.1605
    122  C        -26.8950  -49.7820   19.1340 C.2   243  MET243      0.2287
    123  O        -27.7070  -50.2370   19.9500 O.2   243  MET243     -0.2864
    124  CB       -28.2110  -47.9130   18.1500 C.3   243  MET243      0.0413
    125  CG       -28.4490  -46.9810   16.9870 C.3   243  MET243      0.0598
    126  SD       -29.2660  -45.4760   17.5740 S.3   243  MET243     -0.1393
    127  CE       -29.7490  -44.7340   16.0190 C.3   243  MET243      0.0692
@<TRIPOS>BOND
     1    43    44    1
     2    45    44    1
     3    45    46    2
     4    44    47    1
     5    35    36    1
     6    37    36    1
     7    37    38    2
     8    36    39    1
     9    62    61    2
    10    47    49    1
    11    47    48    1
    12    66    67    1
    13    48    50    1
    14     4     3    2
    15    41    40    1
    16    90    88    1
    17    61    60    1
    18    86    85    2
    19    39    40    1
    20    27    26    2
    21     1     2    1
    22    88    87    1
    23    32    30   ar
    24    32    34   ar
    25     3     2    1
    26    77    76    2
    27    40    42    1
    28    26    25    1
    29    68    67    1
    30    68    69    2
    31    67    70    1
    32    51    52    1
    33    30    29   ar
    34    34    33   ar
    35     2     5    1
    36    59    60    1
    37    59    53   am
    38    76    75    1
    39    85    84    1
    40    60    63    1
    41    65    63    1
    42    70    71    1
    43    87    84    1
    44    87    89    1
    45    71    72    1
    46    84    83    1
    47    29    31   ar
    48    29    28    1
    49    25    28    1
    50    25    24    1
    51    33    31   ar
    52    52    53    1
    53    52    55    1
    54    63    64    1
    55    53    54    2
    56    55    56    1
    57    55    57    1
    58    56    58    1
    59    74    75    1
    60     5     6    1
    61    75    78    1
    62    72    73    1
    63     6     8   ar
    64     6     7   ar
    65     8    10   ar
    66     7     9   ar
    67    79    78    1
    68    79    80    1
    69    10    11   ar
    70     9    11   ar
    71    81    80    1
    72    81    82    1
    73    15    14    2
    74   119   117   ar
    75   116   117    1
    76   116   115    1
    77   117   118   ar
    78   115   112    1
    79   112   111    1
    80   112   113    1
    81   114   113    2
    82    14    13    1
    83    16    13    1
    84    16    17    1
    85   113   120   am
    86    13    12    1
    87   110   109    1
    88   127   126    1
    89    18    17   ar
    90    18    20   ar
    91   102   101    1
    92   109   108    1
    93    17    19   ar
    94    20    22   ar
    95   100   101   ar
    96   100    98   ar
    97   120   121    1
    98   125   126    1
    99   125   124    1
   100   101    99   ar
   101    19    21   ar
   102   121   124    1
   103   121   122    1
   104   108   107    1
   105    98    96   ar
   106    22    21   ar
   107    22    23    1
   108    99    97   ar
   109   107   104    1
   110   122   123    2
   111    96    97   ar
   112    96    95    1
   113   104   105    1
   114   104   103    1
   115   105   106    2
   116    95    92    1
   117    94    93    2
   118    92    93    1
   119    92    91    1
