@<TRIPOS>MOLECULE
tmp/2zz2A00.pdb
 173 164 0 0 0
SMALL
GASTEIGER

@<TRIPOS>ATOM
      1  N         19.9270  -21.4960    9.2520 N.3     8  ALA8       -0.1245
      2  CA        19.9830  -20.7480   10.5090 C.3     8  ALA8        0.1562
      3  C         18.7660  -19.8080   10.4490 C.2     8  ALA8        0.2260
      4  O         18.8000  -18.7350    9.7880 O.2     8  ALA8       -0.2867
      5  CB        21.2850  -19.9170   10.6040 C.3     8  ALA8        0.0290
      6  N         17.0890  -17.1430   11.9040 N.3    10  ASP10      -0.1239
      7  CA        17.2240  -16.0190   12.8490 C.3    10  ASP10       0.1674
      8  C         16.3030  -14.8220   12.5460 C.2    10  ASP10       0.2266
      9  O         16.5150  -13.7210   13.0680 O.2    10  ASP10      -0.2867
     10  CB        18.6930  -15.5530   12.8550 C.3    10  ASP10       0.1410
     11  CG        19.6370  -16.6400   13.3190 C.2    10  ASP10       0.3668
     12  OD1       19.3510  -17.3200   14.3200 O.co2  10  ASP10      -0.2456
     13  OD2       20.7090  -16.7950   12.6680 O.co2  10  ASP10      -0.2456
     14  N         18.5260  -24.7470   12.4290 N.3    32  LYS32      -0.1245
     15  CA        19.1790  -24.2170   13.6340 C.3    32  LYS32       0.1561
     16  C         18.3340  -23.0610   14.1290 C.2    32  LYS32       0.2260
     17  O         18.1520  -22.0650   13.3690 O.2    32  LYS32      -0.2867
     18  CB        20.5840  -23.7230   13.3000 C.3    32  LYS32       0.0271
     19  CG        21.3460  -23.3420   14.5900 C.3    32  LYS32       0.0035
     20  CD        22.8000  -23.0020   14.2570 C.3    32  LYS32       0.0206
     21  CE        22.9760  -21.6120   13.6390 C.3    32  LYS32       0.1093
     22  NZ        22.5790  -20.5160   14.6210 N.3    32  LYS32      -0.1314
     23  N         20.6760  -23.3310   18.9260 N.3    60  ASP60      -0.1239
     24  CA        21.9480  -22.6050   19.0150 C.3    60  ASP60       0.1674
     25  C         21.9050  -21.5930   20.1400 C.2    60  ASP60       0.2266
     26  O         21.6240  -20.4160   19.9290 O.2    60  ASP60      -0.2867
     27  CB        22.2930  -21.9250   17.7080 C.3    60  ASP60       0.1410
     28  CG        23.6850  -21.3010   17.7620 C.2    60  ASP60       0.3668
     29  OD1       24.4060  -21.4370   18.7850 O.co2  60  ASP60      -0.2456
     30  OD2       24.0840  -20.6810   16.7500 O.co2  60  ASP60      -0.2456
     31  N         23.9270  -26.3090   20.9730 N.3    86  ILE86      -0.1245
     32  CA        25.3010  -25.8480   20.8020 C.3    86  ILE86       0.1561
     33  C         25.8050  -25.2080   22.0760 C.2    86  ILE86       0.2260
     34  O         25.1630  -24.3050   22.6270 O.2    86  ILE86      -0.2867
     35  CB        25.3810  -24.8350   19.6280 C.3    86  ILE86       0.0252
     36  CG1       25.0760  -25.5980   18.3300 C.3    86  ILE86       0.0019
     37  CG2       26.8310  -24.2490   19.5360 C.3    86  ILE86       0.0019
     38  CD1       24.8920  -24.6810   17.0370 C.3    86  ILE86       0.0001
     39  N         31.0330  -25.7630   20.2700 N.3   113  LEU113     -0.1245
     40  CA        31.5630  -24.6210   19.5220 C.3   113  LEU113      0.1561
     41  C         32.9910  -24.3890   19.9710 C.2   113  LEU113      0.2260
     42  O         33.2620  -24.1000   21.1530 O.2   113  LEU113     -0.2867
     43  CB        30.6760  -23.3920   19.8130 C.3   113  LEU113      0.0270
     44  CG        31.0850  -22.0550   19.1780 C.3   113  LEU113      0.0019
     45  CD1       31.2170  -22.1850   17.6440 C.3   113  LEU113      0.0001
     46  CD2       30.0010  -21.0190   19.5730 C.3   113  LEU113      0.0001
     47  N         36.0190  -22.6280   17.6300 N.3   115  GLU115     -0.1231
     48  CA        36.3910  -21.3040   17.1810 C.3   115  GLU115      0.1699
     49  C         35.2190  -20.6710   16.4890 C.2   115  GLU115      0.2592
     50  O         34.5690  -21.3410   15.7110 O.2   115  GLU115     -0.2718
     51  CB        37.5880  -21.3780   16.2170 C.3   115  GLU115      0.0402
     52  CG        38.0870  -19.9720   15.8030 C.3   115  GLU115      0.1161
     53  CD        39.3740  -19.9930   15.0050 C.2   115  GLU115      0.3649
     54  OE1       40.1530  -20.9150   15.2300 O.co2 115  GLU115     -0.2457
     55  OE2       39.6000  -19.0730   14.1930 O.co2 115  GLU115     -0.2457
     56  N         34.9500  -19.4020   16.8010 N.am  116  MET116     -0.1965
     57  CA        33.8250  -18.6630   16.1840 C.3   116  MET116      0.1736
     58  C         34.2740  -18.0380   14.8720 C.2   116  MET116      0.2617
     59  O         35.4650  -17.9500   14.5710 O.2   116  MET116     -0.2715
     60  CB        33.3220  -17.6030   17.1360 C.3   116  MET116      0.0427
     61  CG        32.6530  -18.2070   18.3600 C.3   116  MET116      0.0599
     62  SD        32.0690  -16.9370   19.4920 S.3   116  MET116     -0.1393
     63  CE        30.5990  -16.2730   18.6340 C.3   116  MET116      0.0692
     64  N         33.2800  -17.6510   14.0730 N.am  117  SER117     -0.1936
     65  CA        33.5250  -17.2260   12.6930 C.3   117  SER117      0.2055
     66  C         33.7390  -15.7340   12.4900 C.2   117  SER117      0.2643
     67  O         34.1760  -15.3400   11.3850 O.2   117  SER117     -0.2714
     68  CB        32.3330  -17.6790   11.8030 C.3   117  SER117      0.2130
     69  OG        31.1340  -17.0580   12.2650 O.3   117  SER117     -0.2179
     70  N         33.3970  -14.8800   13.4750 N.am  118  HIS118     -0.1973
     71  CA        33.4610  -13.4430   13.2700 C.3   118  HIS118      0.1656
     72  C         34.8730  -12.8790   13.5800 C.2   118  HIS118      0.2291
     73  O         35.7150  -13.5530   14.1850 O.2   118  HIS118     -0.2864
     74  CB        32.4050  -12.7730   14.1950 C.3   118  HIS118      0.0771
     75  CG        32.7170  -12.9800   15.6360 C.ar  118  HIS118      0.0820
     76  ND1       32.7710  -14.2470   16.2060 N.ar  118  HIS118     -0.2267
     77  CD2       33.0380  -12.1010   16.6150 C.ar  118  HIS118      0.1154
     78  CE1       33.1330  -14.1210   17.4780 C.ar  118  HIS118      0.1986
     79  NE2       33.3040  -12.8350   17.7520 N.ar  118  HIS118     -0.2212
     80  N         31.4420  -27.4680   16.0740 N.3   145  VAL145     -0.1245
     81  CA        31.1610  -26.3100   15.2070 C.3   145  VAL145      0.1561
     82  C         32.4590  -25.5250   15.0450 C.2   145  VAL145      0.2260
     83  O         33.1590  -25.2680   16.0270 O.2   145  VAL145     -0.2867
     84  CB        30.1300  -25.3370   15.8560 C.3   145  VAL145      0.0252
     85  CG1       29.6930  -24.2730   14.8390 C.3   145  VAL145      0.0019
     86  CG2       28.9180  -26.1010   16.3900 C.3   145  VAL145      0.0019
     87  N         34.6730  -22.5460   12.0740 N.3   147  PRO147     -0.2116
     88  CA        34.3480  -21.3710   11.2220 C.3   147  PRO147      0.1372
     89  C         34.5640  -21.4810    9.7060 C.2   147  PRO147      0.2244
     90  O         35.6740  -21.7320    9.2530 O.2   147  PRO147     -0.2868
     91  CB        35.2890  -20.2760   11.7770 C.3   147  PRO147      0.0268
     92  CG        36.5200  -21.0690   12.1810 C.3   147  PRO147      0.0207
     93  CD        35.9350  -22.3660   12.8130 C.3   147  PRO147      0.0892
     94  N         29.2550  -22.5030   10.4170 N.3   170  PRO170     -0.2102
     95  CA        28.6190  -21.2520   10.0160 C.3   170  PRO170      0.1504
     96  C         29.6080  -20.2260    9.4720 C.2   170  PRO170      0.2576
     97  O         30.8420  -20.3520    9.6290 O.2   170  PRO170     -0.2718
     98  CB        28.0520  -20.7340   11.3370 C.3   170  PRO170      0.0282
     99  CG        29.0980  -21.1590   12.3580 C.3   170  PRO170      0.0208
    100  CD        29.6990  -22.4570   11.8340 C.3   170  PRO170      0.0893
    101  N         29.0320  -19.1630    8.9080 N.am  171  GLY171     -0.1943
    102  CA        29.8200  -18.1000    8.2770 C.3   171  GLY171      0.2014
    103  C         29.8510  -18.1730    6.7690 C.2   171  GLY171      0.2638
    104  O         30.6660  -17.4720    6.1580 O.2   171  GLY171     -0.2714
    105  N         28.9470  -18.9800    6.1870 N.am  172  VAL172     -0.1977
    106  CA        28.8570  -19.1510    4.7240 C.3   172  VAL172      0.1596
    107  C         27.9310  -18.0640    4.2140 C.2   172  VAL172      0.2287
    108  O         26.8240  -17.8640    4.7420 O.2   172  VAL172     -0.2864
    109  CB        28.2780  -20.5420    4.3660 C.3   172  VAL172      0.0276
    110  CG1       28.0190  -20.6330    2.8390 C.3   172  VAL172      0.0022
    111  CG2       29.2400  -21.6370    4.8460 C.3   172  VAL172      0.0022
    112  N         26.8460  -14.5520    3.9780 N.3   174  ALA174     -0.1231
    113  CA        26.9340  -13.1790    4.4980 C.3   174  ALA174      0.1694
    114  C         28.2920  -12.8660    5.1240 C.2   174  ALA174      0.2591
    115  O         28.7780  -11.7610    4.9400 O.2   174  ALA174     -0.2718
    116  CB        25.8450  -12.9160    5.4960 C.3   174  ALA174      0.0304
    117  N         28.8410  -13.7760    5.9210 N.am  175  GLN175     -0.1979
    118  CA        30.0910  -13.4950    6.6140 C.3   175  GLN175      0.1601
    119  C         31.3180  -13.6820    5.7290 C.2   175  GLN175      0.2287
    120  O         32.4270  -13.3970    6.1560 O.2   175  GLN175     -0.2864
    121  CB        30.2030  -14.4020    7.8470 C.3   175  GLN175      0.0394
    122  CG        29.1810  -14.0790    8.8800 C.3   175  GLN175      0.0908
    123  CD        29.3420  -15.0280   10.0940 C.2   175  GLN175      0.2608
    124  OE1       30.4130  -15.0800   10.7140 O.2   175  GLN175     -0.2717
    125  NE2       28.2720  -15.7610   10.4540 N.am  175  GLN175     -0.0878
    126  N         26.1360  -24.2620    7.7550 N.3   190  ILE190     -0.1231
    127  CA        25.0130  -23.4820    8.2620 C.3   190  ILE190      0.1692
    128  C         24.8920  -22.2140    7.4370 C.2   190  ILE190      0.2592
    129  O         25.9020  -21.5290    7.2210 O.2   190  ILE190     -0.2718
    130  CB        25.3050  -23.0840    9.7150 C.3   190  ILE190      0.0266
    131  CG1       25.2930  -24.3600   10.5810 C.3   190  ILE190      0.0019
    132  CG2       24.2040  -22.0630   10.2280 C.3   190  ILE190      0.0020
    133  CD1       26.0100  -24.1090   11.8880 C.3   190  ILE190      0.0001
    134  N         23.6630  -21.9080    6.9790 N.am  191  VAL191     -0.1966
    135  CA        23.4390  -20.6740    6.2160 C.3   191  VAL191      0.1727
    136  C         22.1930  -20.0010    6.7330 C.2   191  VAL191      0.2617
    137  O         21.1330  -20.6240    6.7790 O.2   191  VAL191     -0.2715
    138  CB        23.2820  -20.9470    4.6930 C.3   191  VAL191      0.0290
    139  CG1       23.0530  -19.6290    3.9360 C.3   191  VAL191      0.0023
    140  CG2       24.5050  -21.6910    4.1250 C.3   191  VAL191      0.0023
    141  N         22.3310  -18.7130    7.0710 N.am  192  GLY192     -0.1940
    142  CA        21.2420  -17.9000    7.5900 C.3   192  GLY192      0.2014
    143  C         20.8340  -16.8350    6.5910 C.2   192  GLY192      0.2639
    144  O         20.0680  -17.1120    5.6640 O.2   192  GLY192     -0.2714
    145  N         21.4360  -15.6530    6.6850 N.am  193  ARG193     -0.1963
    146  CA        20.9880  -14.4790    5.9220 C.3   193  ARG193      0.1729
    147  C         20.9740  -14.6960    4.4030 C.2   193  ARG193      0.2616
    148  O         20.0790  -14.1930    3.7320 O.2   193  ARG193     -0.2715
    149  CB        21.8550  -13.2720    6.2980 C.3   193  ARG193      0.0348
    150  CG        21.4830  -12.6920    7.6680 C.3   193  ARG193      0.0492
    151  CD        22.5580  -11.7040    8.1390 C.3   193  ARG193      0.2205
    152  NE        23.7640  -12.4470    8.5470 N.pl3 193  ARG193     -0.0865
    153  CZ        24.9520  -11.9000    8.8060 C.cat 193  ARG193      0.5346
    154  NH1       25.1270  -10.5850    8.6600 N.pl3 193  ARG193      0.1354
    155  NH2       25.9790  -12.6470    9.2020 N.pl3 193  ARG193      0.1354
    156  N         21.9700  -15.3840    3.8560 N.am  194  SER194     -0.1950
    157  CA        22.0310  -15.6240    2.3840 C.3   194  SER194      0.1924
    158  C         20.7820  -16.3050    1.8850 C.2   194  SER194      0.2314
    159  O         20.4250  -16.1290    0.6810 O.2   194  SER194     -0.2863
    160  CB        23.2460  -16.4850    2.0190 C.3   194  SER194      0.2116
    161  OG        24.3830  -15.7100    2.1690 O.3   194  SER194     -0.2180
    162  N         17.6380  -16.4380    4.2390 N.3   196  TYR196     -0.1241
    163  CA        16.3800  -15.8960    4.7890 C.3   196  TYR196      0.1605
    164  C         16.1520  -14.4140    4.4820 C.2   196  TYR196      0.2264
    165  O         15.0270  -13.9350    4.6520 O.2   196  TYR196     -0.2867
    166  CB        16.1710  -16.2470    6.2820 C.3   196  TYR196      0.0534
    167  CG        17.0910  -15.5280    7.2990 C.ar  196  TYR196     -0.0201
    168  CD1       16.9980  -14.1480    7.5130 C.ar  196  TYR196     -0.0009
    169  CD2       18.0140  -16.2530    8.0870 C.ar  196  TYR196     -0.0009
    170  CE1       17.8160  -13.4640    8.4530 C.ar  196  TYR196      0.0417
    171  CE2       18.7980  -15.5970    9.0230 C.ar  196  TYR196      0.0417
    172  CZ        18.7150  -14.2120    9.1960 C.ar  196  TYR196      0.1957
    173  OH        19.5290  -13.5950   10.1300 O.3   196  TYR196     -0.2866
@<TRIPOS>BOND
     1   159   158    2
     2   158   157    1
     3   160   161    1
     4   160   157    1
     5   157   156    1
     6   110   109    1
     7   148   147    2
     8   156   147   am
     9   139   138    1
    10   112   113    1
    11   140   138    1
    12   107   106    1
    13   107   108    2
    14   162   163    1
    15   109   106    1
    16   109   111    1
    17   147   146    1
    18   164   165    2
    19   164   163    1
    20   113   114    1
    21   113   116    1
    22   138   135    1
    23   106   105    1
    24   163   166    1
    25   115   114    2
    26   114   117   am
    27   144   143    2
    28   119   120    2
    29   119   118    1
    30   117   118    1
    31   146   149    1
    32   146   145    1
    33   104   103    2
    34   105   103   am
    35   135   136    1
    36   135   134    1
    37   166   167    1
    38   149   150    1
    39   143   145   am
    40   143   142    1
    41   118   121    1
    42   136   137    2
    43   136   141   am
    44   103   102    1
    45   134   128   am
    46   141   142    1
    47   129   128    2
    48   167   168   ar
    49   167   169   ar
    50   128   127    1
    51   168   170   ar
    52   150   151    1
    53   126   127    1
    54   121   122    1
    55   169   171   ar
    56   151   152    1
    57   127   130    1
    58   102   101    1
    59   170   172   ar
    60   152   153    2
    61   154   153    1
    62   153   155    1
    63   122   123    1
    64   101    96   am
    65   171   172   ar
    66   172   173    1
    67     1     2    1
    68    90    89    2
    69    96    97    2
    70    96    95    1
    71    89    88    1
    72   130   132    1
    73   130   131    1
    74     4     3    2
    75    95    94    1
    76    95    98    1
    77   123   125   am
    78   123   124    2
    79    94   100    1
    80     3     2    1
    81     2     5    1
    82   131   133    1
    83    88    91    1
    84    88    87    1
    85    98    99    1
    86    67    66    2
    87    91    92    1
    88    68    69    1
    89    68    65    1
    90   100    99    1
    91     6     7    1
    92    87    93    1
    93    92    93    1
    94    14    15    1
    95    66    65    1
    96    66    70   am
    97     8     7    1
    98     8     9    2
    99    13    11   ar
   100    65    64    1
   101     7    10    1
   102    10    11    1
   103    71    70    1
   104    71    72    1
   105    71    74    1
   106    18    15    1
   107    18    19    1
   108    11    12   ar
   109    17    16    2
   110    72    73    2
   111    15    16    1
   112    21    20    1
   113    21    22    1
   114    64    58   am
   115    55    53   ar
   116    74    75    1
   117    20    19    1
   118    59    58    2
   119    85    84    1
   120    58    57    1
   121    53    54   ar
   122    53    52    1
   123    82    81    1
   124    82    83    2
   125    81    84    1
   126    81    80    1
   127    75    76   ar
   128    75    77   ar
   129    50    49    2
   130    52    51    1
   131    84    86    1
   132    57    56    1
   133    57    60    1
   134    76    78   ar
   135    51    48    1
   136    49    56   am
   137    49    48    1
   138    77    79   ar
   139    30    28   ar
   140    38    36    1
   141    60    61    1
   142    48    47    1
   143    78    79   ar
   144    45    44    1
   145    27    28    1
   146    27    24    1
   147    28    29   ar
   148    36    35    1
   149    61    62    1
   150    63    62    1
   151    23    24    1
   152    24    25    1
   153    44    46    1
   154    44    43    1
   155    40    43    1
   156    40    41    1
   157    40    39    1
   158    37    35    1
   159    35    32    1
   160    26    25    2
   161    41    42    2
   162    32    31    1
   163    32    33    1
   164    33    34    2
