@<TRIPOS>MOLECULE
tmp/2zz9A03.pdb
 75 67 0 0 0
SMALL
GASTEIGER

@<TRIPOS>ATOM
      1  N         26.7190   42.3380  130.0570 N.3    72  VAL72      -0.1245
      2  CA        28.0240   41.6900  129.9230 C.3    72  VAL72       0.1561
      3  C         27.8920   40.4290  129.0570 C.2    72  VAL72       0.2260
      4  O         28.6860   40.2100  128.1510 O.2    72  VAL72      -0.2867
      5  CB        28.6720   41.3870  131.3140 C.3    72  VAL72       0.0252
      6  CG1       29.8850   40.4720  131.1820 C.3    72  VAL72       0.0019
      7  CG2       29.0510   42.6870  132.0260 C.3    72  VAL72       0.0019
      8  N         27.5030   41.3360  125.3880 N.3    75  VAL75      -0.1231
      9  CA        28.7520   41.7250  124.7430 C.3    75  VAL75       0.1692
     10  C         29.6960   40.5370  124.5950 C.2    75  VAL75       0.2592
     11  O         30.2810   40.3330  123.5300 O.2    75  VAL75      -0.2718
     12  CB        29.4480   42.9310  125.4610 C.3    75  VAL75       0.0266
     13  CG1       29.6130   42.6840  126.9450 C.3    75  VAL75       0.0020
     14  CG2       30.7970   43.2520  124.8170 C.3    75  VAL75       0.0020
     15  N         29.8320   39.7580  125.6620 N.am   76  CYS76      -0.1970
     16  CA        30.6680   38.5720  125.6420 C.3    76  CYS76       0.1712
     17  C         30.2190   37.6170  124.5360 C.2    76  CYS76       0.2296
     18  O         31.0270   36.8570  124.0050 O.2    76  CYS76      -0.2864
     19  CB        30.6360   37.8730  127.0030 C.3    76  CYS76       0.0983
     20  SG        31.4550   38.7870  128.3320 S.3    76  CYS76      -0.0798
     21  N         28.9380   38.7620  121.7650 N.3    78  ARG78      -0.1245
     22  CA        28.9610   39.6740  120.6120 C.3    78  ARG78       0.1563
     23  C         27.5500   39.9700  120.1030 C.2    78  ARG78       0.2260
     24  O         26.9930   39.2410  119.2700 O.2    78  ARG78      -0.2867
     25  CB        29.8930   39.1880  119.4900 C.3    78  ARG78       0.0307
     26  CG        31.3770   39.3050  119.8120 C.3    78  ARG78       0.0489
     27  CD        31.9550   37.9860  120.3090 C.3    78  ARG78       0.2205
     28  NE        32.4510   37.1520  119.2150 N.pl3  78  ARG78      -0.0865
     29  CZ        33.7140   36.7510  119.0770 C.cat  78  ARG78       0.5346
     30  NH1       34.0500   35.9960  118.0390 N.pl3  78  ARG78       0.1354
     31  NH2       34.6410   37.0820  119.9710 N.pl3  78  ARG78       0.1354
     32  N         31.4980   47.1290  122.5390 N.3    82  ILE82      -0.1245
     33  CA        32.1560   47.3210  123.8250 C.3    82  ILE82       0.1561
     34  C         31.8680   48.7250  124.3740 C.2    82  ILE82       0.2260
     35  O         31.7960   48.9130  125.5890 O.2    82  ILE82      -0.2867
     36  CB        33.6930   47.0880  123.7520 C.3    82  ILE82       0.0252
     37  CG1       34.0940   46.1950  122.5570 C.3    82  ILE82       0.0019
     38  CG2       34.2200   46.5690  125.1010 C.3    82  ILE82       0.0019
     39  CD1       33.7710   44.6940  122.6910 C.3    82  ILE82       0.0001
     40  N         28.0150   49.1030  125.3890 N.3    85  SER85      -0.1202
     41  CA        27.8350   48.4130  126.6640 C.3    85  SER85       0.2020
     42  C         28.3030   49.1860  127.8980 C.2    85  SER85       0.2618
     43  O         27.9420   48.8390  129.0200 O.2    85  SER85      -0.2717
     44  CB        28.5670   47.0680  126.6080 C.3    85  SER85       0.2103
     45  OG        28.7000   46.4930  127.8950 O.3    85  SER85      -0.2182
     46  N         29.1180   50.2110  127.7070 N.am   86  VAL86      -0.1979
     47  CA        29.5670   50.9930  128.8490 C.3    86  VAL86       0.1595
     48  C         28.5890   52.1210  129.1520 C.2    86  VAL86       0.2287
     49  O         28.5070   52.5970  130.2850 O.2    86  VAL86      -0.2864
     50  CB        31.0300   51.5040  128.6960 C.3    86  VAL86       0.0276
     51  CG1       31.9990   50.3290  128.6440 C.3    86  VAL86       0.0022
     52  CG2       31.1970   52.3620  127.4610 C.3    86  VAL86       0.0022
     53  N         25.5780   50.1450  131.4300 N.3    89  ILE89      -0.1245
     54  CA        25.8790   49.8670  132.8390 C.3    89  ILE89       0.1561
     55  C         25.7230   51.1080  133.7040 C.2    89  ILE89       0.2260
     56  O         25.0840   51.0530  134.7510 O.2    89  ILE89      -0.2867
     57  CB        27.2900   49.2500  133.0240 C.3    89  ILE89       0.0252
     58  CG1       27.2760   47.7800  132.6060 C.3    89  ILE89       0.0019
     59  CG2       27.7690   49.3830  134.4760 C.3    89  ILE89       0.0019
     60  CD1       28.6270   47.1300  132.5630 C.3    89  ILE89       0.0001
     61  N         27.6480   37.9010  136.7960 N.3   208  ILE208     -0.1245
     62  CA        28.3600   38.0270  135.5180 C.3   208  ILE208      0.1561
     63  C         28.9000   36.6810  135.0150 C.2   208  ILE208      0.2260
     64  O         28.7140   36.3500  133.8420 O.2   208  ILE208     -0.2867
     65  CB        29.4650   39.1190  135.5270 C.3   208  ILE208      0.0252
     66  CG1       28.8270   40.5080  135.4980 C.3   208  ILE208      0.0019
     67  CG2       30.3900   38.9660  134.3240 C.3   208  ILE208      0.0019
     68  CD1       29.8110   41.6690  135.6660 C.3   208  ILE208      0.0001
     69  N         27.6250   34.9860  131.5620 N.3   212  VAL212     -0.1245
     70  CA        28.4620   34.5030  130.4820 C.3   212  VAL212      0.1561
     71  C         28.2340   33.0110  130.2180 C.2   212  VAL212      0.2260
     72  O         27.8880   32.6270  129.0990 O.2   212  VAL212     -0.2867
     73  CB        29.9530   34.7660  130.7580 C.3   212  VAL212      0.0252
     74  CG1       30.8370   34.0220  129.7330 C.3   212  VAL212      0.0019
     75  CG2       30.2290   36.2710  130.7700 C.3   212  VAL212      0.0019
@<TRIPOS>BOND
     1    30    29    1
     2    29    28    2
     3    29    31    1
     4    28    27    1
     5    24    23    2
     6    25    26    1
     7    25    22    1
     8    26    27    1
     9    23    22    1
    10    22    21    1
    11    32    33    1
    12    37    39    1
    13    37    36    1
    14    11    10    2
    15    36    33    1
    16    36    38    1
    17    33    34    1
    18    18    17    2
    19    34    35    2
    20    17    16    1
    21    10     9    1
    22    10    15   am
    23     9     8    1
    24     9    12    1
    25    14    12    1
    26    40    41    1
    27    12    13    1
    28    16    15    1
    29    16    19    1
    30    44    41    1
    31    44    45    1
    32    41    42    1
    33    19    20    1
    34    52    50    1
    35    46    42   am
    36    46    47    1
    37    42    43    2
    38     4     3    2
    39    51    50    1
    40    50    47    1
    41    47    48    1
    42     3     2    1
    43    72    71    2
    44    48    49    2
    45    74    73    1
    46     2     1    1
    47     2     5    1
    48    71    70    1
    49    70    73    1
    50    70    69    1
    51    73    75    1
    52     6     5    1
    53     5     7    1
    54    53    54    1
    55    60    58    1
    56    58    57    1
    57    54    57    1
    58    54    55    1
    59    57    59    1
    60    55    56    2
    61    64    63    2
    62    67    65    1
    63    63    62    1
    64    66    65    1
    65    66    68    1
    66    62    65    1
    67    62    61    1
