@<TRIPOS>MOLECULE
tmp/2zz9A01.pdb
 106 101 0 0 0
SMALL
GASTEIGER

@<TRIPOS>ATOM
      1  N         17.8590   53.9800  131.4540 N.3    13  PHE13      -0.1227
      2  CA        17.8950   54.7120  132.7220 C.3    13  PHE13       0.1736
      3  C         16.5170   54.7030  133.4170 C.2    13  PHE13       0.2595
      4  O         16.4180   54.2930  134.5780 O.2    13  PHE13      -0.2718
      5  CB        18.4560   56.1390  132.5190 C.3    13  PHE13       0.0547
      6  CG        18.3580   57.0320  133.7450 C.ar   13  PHE13      -0.0202
      7  CD1       19.4110   57.0970  134.6640 C.ar   13  PHE13      -0.0042
      8  CD2       17.2070   57.8150  133.9730 C.ar   13  PHE13      -0.0042
      9  CE1       19.3150   57.9200  135.7970 C.ar   13  PHE13      -0.0003
     10  CE2       17.0970   58.6350  135.0940 C.ar   13  PHE13      -0.0003
     11  CZ        18.1560   58.6960  136.0050 C.ar   13  PHE13      -0.0000
     12  N         15.4750   55.1330  132.7030 N.am   14  LEU14      -0.1980
     13  CA        14.0950   55.1280  133.2100 C.3    14  LEU14       0.1596
     14  C         13.5830   53.7640  133.6560 C.2    14  LEU14       0.2287
     15  O         12.7850   53.6660  134.5840 O.2    14  LEU14      -0.2864
     16  CB        13.1370   55.6350  132.1370 C.3    14  LEU14       0.0297
     17  CG        12.5740   57.0440  132.2200 C.3    14  LEU14       0.0022
     18  CD1       11.6460   57.3100  131.0210 C.3    14  LEU14       0.0001
     19  CD2       11.8210   57.2130  133.5320 C.3    14  LEU14       0.0001
     20  N         15.1040   52.6700  136.7920 N.3    17  LEU17      -0.1245
     21  CA        14.5110   53.6490  137.6910 C.3    17  LEU17       0.1561
     22  C         13.1550   53.2160  138.2560 C.2    17  LEU17       0.2260
     23  O         12.8400   53.4840  139.4160 O.2    17  LEU17      -0.2867
     24  CB        14.4040   55.0100  136.9760 C.3    17  LEU17       0.0270
     25  CG        13.5720   56.1640  137.5530 C.3    17  LEU17       0.0019
     26  CD1       13.8090   56.3840  139.0540 C.3    17  LEU17       0.0001
     27  CD2       13.8420   57.4420  136.7650 C.3    17  LEU17       0.0001
     28  N         23.0610   54.5480  137.3490 N.3    94  LEU94      -0.1245
     29  CA        22.4690   55.8040  137.8310 C.3    94  LEU94       0.1561
     30  C         20.9630   55.6160  137.9990 C.2    94  LEU94       0.2260
     31  O         20.3640   56.1230  138.9480 O.2    94  LEU94      -0.2867
     32  CB        22.7440   56.9770  136.8700 C.3    94  LEU94       0.0270
     33  CG        24.1570   57.5270  136.5780 C.3    94  LEU94       0.0019
     34  CD1       24.1490   58.3010  135.2680 C.3    94  LEU94       0.0001
     35  CD2       24.7130   58.4050  137.6980 C.3    94  LEU94       0.0001
     36  N         20.4140   53.8870  141.2520 N.3    97  ILE97      -0.1231
     37  CA        20.7630   54.8480  142.3040 C.3    97  ILE97       0.1692
     38  C         19.7080   55.9340  142.5220 C.2    97  ILE97       0.2591
     39  O         19.4460   56.3040  143.6610 O.2    97  ILE97      -0.2718
     40  CB        22.1400   55.4970  142.0410 C.3    97  ILE97       0.0266
     41  CG1       23.2610   54.5070  142.3620 C.3    97  ILE97       0.0019
     42  CG2       22.3140   56.7710  142.8600 C.3    97  ILE97       0.0020
     43  CD1       24.6430   55.0400  142.0510 C.3    97  ILE97       0.0001
     44  N         19.0930   56.4470  141.4540 N.am   98  ILE98      -0.1980
     45  CA        18.0320   57.4490  141.6480 C.3    98  ILE98       0.1595
     46  C         16.6480   56.8200  141.6490 C.2    98  ILE98       0.2287
     47  O         15.6560   57.4860  141.9350 O.2    98  ILE98      -0.2864
     48  CB        18.1500   58.7520  140.7290 C.3    98  ILE98       0.0276
     49  CG1       17.7130   58.4930  139.2930 C.3    98  ILE98       0.0022
     50  CG2       19.5650   59.4230  140.8020 C.3    98  ILE98       0.0022
     51  CD1       16.3310   59.0060  138.9990 C.3    98  ILE98       0.0001
     52  N         16.9680   56.1970  145.2370 N.3   101  GLY101     -0.1210
     53  CA        16.9490   57.5930  145.6850 C.3   101  GLY101      0.1956
     54  C         15.5370   58.1140  145.8340 C.2   101  GLY101      0.2611
     55  O         15.0750   58.3630  146.9490 O.2   101  GLY101     -0.2717
     56  N         14.8520   58.2480  144.7030 N.am  102  ILE102     -0.1979
     57  CA        13.4530   58.6400  144.6820 C.3   102  ILE102      0.1595
     58  C         12.6620   57.8410  145.7210 C.2   102  ILE102      0.2287
     59  O         11.7940   58.3930  146.3930 O.2   102  ILE102     -0.2864
     60  CB        12.8150   58.4410  143.2860 C.3   102  ILE102      0.0276
     61  CG1       13.2310   59.5420  142.3160 C.3   102  ILE102      0.0022
     62  CG2       11.3140   58.4750  143.3690 C.3   102  ILE102      0.0022
     63  CD1       12.8450   59.2350  140.8590 C.3   102  ILE102      0.0001
     64  N         13.6840   56.3910  148.5480 N.3   104  TYR104     -0.1227
     65  CA        14.1230   56.6460  149.9150 C.3   104  TYR104      0.1736
     66  C         13.2580   57.6750  150.5890 C.2   104  TYR104      0.2595
     67  O         12.9070   57.5260  151.7560 O.2   104  TYR104     -0.2718
     68  CB        15.5830   57.1220  149.9370 C.3   104  TYR104      0.0548
     69  CG        16.1160   57.3250  151.3490 C.ar  104  TYR104     -0.0200
     70  CD1       16.5680   56.2370  152.1070 C.ar  104  TYR104     -0.0009
     71  CD2       16.1490   58.5930  151.9390 C.ar  104  TYR104     -0.0009
     72  CE1       17.0560   56.4080  153.4130 C.ar  104  TYR104      0.0417
     73  CE2       16.6270   58.7710  153.2490 C.ar  104  TYR104      0.0417
     74  CZ        17.0800   57.6750  153.9800 C.ar  104  TYR104      0.1957
     75  OH        17.5600   57.8260  155.2660 O.3   104  TYR104     -0.2866
     76  N         12.9150   58.7200  149.8460 N.am  105  LEU105     -0.1980
     77  CA        12.2130   59.8620  150.4130 C.3   105  LEU105      0.1596
     78  C         10.7110   59.8530  150.2030 C.2   105  LEU105      0.2287
     79  O         10.0450   60.8570  150.4470 O.2   105  LEU105     -0.2864
     80  CB        12.8190   61.1570  149.8670 C.3   105  LEU105      0.0297
     81  CG        12.5350   61.8460  148.5130 C.3   105  LEU105      0.0022
     82  CD1       13.8930   62.3700  147.9710 C.3   105  LEU105      0.0001
     83  CD2       11.7910   61.0200  147.4270 C.3   105  LEU105      0.0001
     84  N         24.6100   52.1690  147.1500 N.3   192  VAL192     -0.1231
     85  CA        25.0730   53.5460  147.1180 C.3   192  VAL192      0.1692
     86  C         24.3480   54.3910  148.1670 C.2   192  VAL192      0.2592
     87  O         24.9930   55.0690  148.9770 O.2   192  VAL192     -0.2718
     88  CB        24.9010   54.1370  145.7010 C.3   192  VAL192      0.0266
     89  CG1       24.8860   55.6490  145.7150 C.3   192  VAL192      0.0020
     90  CG2       26.0050   53.6130  144.7970 C.3   192  VAL192      0.0020
     91  N         23.0170   54.3090  148.1600 N.am  193  ILE193     -0.1966
     92  CA        22.1560   55.1490  148.9870 C.3   193  ILE193      0.1727
     93  C         22.2980   54.8950  150.4990 C.2   193  ILE193      0.2616
     94  O         22.2620   55.8430  151.3020 O.2   193  ILE193     -0.2715
     95  CB        20.6620   55.0260  148.5510 C.3   193  ILE193      0.0290
     96  CG1       20.3400   55.9540  147.3700 C.3   193  ILE193      0.0022
     97  CG2       19.7270   55.3850  149.6980 C.3   193  ILE193      0.0023
     98  CD1       20.9670   55.5320  146.0770 C.3   193  ILE193      0.0001
     99  N         22.4610   53.6310  150.8860 N.am  194  MET194     -0.1977
    100  CA        22.5110   53.3020  152.3080 C.3   194  MET194      0.1605
    101  C         23.9380   53.0870  152.8280 C.2   194  MET194      0.2287
    102  O         24.1670   53.0710  154.0470 O.2   194  MET194     -0.2864
    103  CB        21.6260   52.0950  152.6320 C.3   194  MET194      0.0413
    104  CG        20.1590   52.2290  152.2030 C.3   194  MET194      0.0598
    105  SD        19.1190   53.3190  153.2050 S.3   194  MET194     -0.1393
    106  CE        18.8100   52.3000  154.6660 C.3   194  MET194      0.0692
@<TRIPOS>BOND
     1    18    17    1
     2     1     2    1
     3    16    17    1
     4    16    13    1
     5    17    19    1
     6     5     2    1
     7     5     6    1
     8    12    13    1
     9    12     3   am
    10     2     3    1
    11    13    14    1
    12     3     4    2
    13    14    15    2
    14     6     8   ar
    15     6     7   ar
    16     8    10   ar
    17     7     9   ar
    18    10    11   ar
    19    34    33    1
    20     9    11   ar
    21    33    32    1
    22    33    35    1
    23    27    25    1
    24    20    21    1
    25    32    29    1
    26    24    25    1
    27    24    21    1
    28    28    29    1
    29    25    26    1
    30    21    22    1
    31    29    30    1
    32    30    31    2
    33    22    23    2
    34    51    49    1
    35    49    48    1
    36    48    50    1
    37    48    45    1
    38    63    61    1
    39    36    37    1
    40    44    45    1
    41    44    38   am
    42    45    46    1
    43    46    47    2
    44    40    37    1
    45    40    41    1
    46    40    42    1
    47    43    41    1
    48    37    38    1
    49    61    60    1
    50    38    39    2
    51    60    62    1
    52    60    57    1
    53    57    56    1
    54    57    58    1
    55    56    54   am
    56    90    88    1
    57    52    53    1
    58    53    54    1
    59    88    89    1
    60    88    85    1
    61    58    59    2
    62    54    55    2
    63    98    96    1
    64    85    84    1
    65    85    86    1
    66    96    95    1
    67    83    81    1
    68    82    81    1
    69    91    86   am
    70    91    92    1
    71    86    87    2
    72    81    80    1
    73    64    65    1
    74    95    92    1
    75    95    97    1
    76    92    93    1
    77    76    77    1
    78    76    66   am
    79    80    77    1
    80    65    68    1
    81    65    66    1
    82    68    69    1
    83    78    77    1
    84    78    79    2
    85    93    99   am
    86    93    94    2
    87    66    67    2
    88    99   100    1
    89    69    71   ar
    90    69    70   ar
    91    71    73   ar
    92    70    72   ar
    93   104   103    1
    94   104   105    1
    95   100   103    1
    96   100   101    1
    97   101   102    2
    98   105   106    1
    99    73    74   ar
   100    72    74   ar
   101    74    75    1
