@<TRIPOS>MOLECULE
tmp/2zz9A00.pdb
 125 126 0 0 0
SMALL
GASTEIGER

@<TRIPOS>ATOM
      1  N         26.7190   42.3380  130.0570 N.3    72  VAL72      -0.1245
      2  CA        28.0240   41.6900  129.9230 C.3    72  VAL72       0.1561
      3  C         27.8920   40.4290  129.0570 C.2    72  VAL72       0.2260
      4  O         28.6860   40.2100  128.1510 O.2    72  VAL72      -0.2867
      5  CB        28.6720   41.3870  131.3140 C.3    72  VAL72       0.0252
      6  CG1       29.8850   40.4720  131.1820 C.3    72  VAL72       0.0019
      7  CG2       29.0510   42.6870  132.0260 C.3    72  VAL72       0.0019
      8  N         25.5780   50.1450  131.4300 N.3    89  ILE89      -0.1245
      9  CA        25.8790   49.8670  132.8390 C.3    89  ILE89       0.1561
     10  C         25.7230   51.1080  133.7040 C.2    89  ILE89       0.2260
     11  O         25.0840   51.0530  134.7510 O.2    89  ILE89      -0.2867
     12  CB        27.2900   49.2500  133.0240 C.3    89  ILE89       0.0252
     13  CG1       27.2760   47.7800  132.6060 C.3    89  ILE89       0.0019
     14  CG2       27.7690   49.3830  134.4760 C.3    89  ILE89       0.0019
     15  CD1       28.6270   47.1300  132.5630 C.3    89  ILE89       0.0001
     16  N         23.4370   47.5540  142.9640 N.3   188  PHE188     -0.1241
     17  CA        24.3040   48.7480  143.0050 C.3   188  PHE188      0.1605
     18  C         23.5670   50.0020  143.4960 C.2   188  PHE188      0.2264
     19  O         24.1390   50.8150  144.2340 O.2   188  PHE188     -0.2867
     20  CB        24.9770   49.0280  141.6640 C.3   188  PHE188      0.0534
     21  CG        26.0470   50.0840  141.7480 C.ar  188  PHE188     -0.0203
     22  CD1       27.2790   49.7980  142.3440 C.ar  188  PHE188     -0.0042
     23  CD2       25.8170   51.3650  141.2640 C.ar  188  PHE188     -0.0042
     24  CE1       28.2670   50.7720  142.4510 C.ar  188  PHE188     -0.0003
     25  CE2       26.7920   52.3450  141.3670 C.ar  188  PHE188     -0.0003
     26  CZ        28.0220   52.0480  141.9700 C.ar  188  PHE188     -0.0000
     27  N         27.6080   47.8050  151.9090 N.3   197  TRP197     -0.1227
     28  CA        28.3320   47.1390  150.8090 C.3   197  TRP197      0.1737
     29  C         28.7980   45.7110  151.1680 C.2   197  TRP197      0.2595
     30  O         29.6260   45.1310  150.4490 O.2   197  TRP197     -0.2718
     31  CB        29.5720   47.9540  150.3940 C.3   197  TRP197      0.0564
     32  CG        29.3030   49.3100  149.7760 C.ar  197  TRP197      0.0003
     33  CD1       29.1390   50.4960  150.4390 C.ar  197  TRP197      0.0946
     34  CD2       29.2070   49.6220  148.3740 C.ar  197  TRP197      0.0152
     35  NE1       28.9300   51.5190  149.5450 N.ar  197  TRP197     -0.2442
     36  CE2       28.9660   51.0120  148.2710 C.ar  197  TRP197      0.0810
     37  CE3       29.2830   48.8590  147.1950 C.ar  197  TRP197      0.0012
     38  CZ2       28.7970   51.6550  147.0330 C.ar  197  TRP197      0.0191
     39  CZ3       29.1300   49.5030  145.9670 C.ar  197  TRP197      0.0001
     40  CH2       28.8850   50.8810  145.8980 C.ar  197  TRP197      0.0015
     41  N         28.2850   45.1530  152.2710 N.am  198  GLU198     -0.1965
     42  CA        28.6010   43.7680  152.6400 C.3   198  GLU198      0.1733
     43  C         28.5570   42.8640  151.3950 C.2   198  GLU198      0.2616
     44  O         27.5760   42.8630  150.6520 O.2   198  GLU198     -0.2715
     45  CB        27.6450   43.2390  153.7320 C.3   198  GLU198      0.0429
     46  CG        28.2190   42.0680  154.5700 C.3   198  GLU198      0.1163
     47  CD        27.1550   41.0900  155.1100 C.2   198  GLU198      0.3649
     48  OE1       26.1510   41.5490  155.7080 O.co2 198  GLU198     -0.2457
     49  OE2       27.3330   39.8510  154.9590 O.co2 198  GLU198     -0.2457
     50  N         29.6440   42.1240  151.1800 N.am  199  ASN199     -0.1958
     51  CA        29.8300   41.1930  150.0470 C.3   199  ASN199      0.1819
     52  C         29.3660   41.7000  148.6750 C.2   199  ASN199      0.2621
     53  O         28.9160   40.9260  147.8380 O.2   199  ASN199     -0.2715
     54  CB        29.2400   39.8090  150.3720 C.3   199  ASN199      0.1195
     55  CG        27.8310   39.8870  150.9680 C.2   199  ASN199      0.2630
     56  OD1       27.5880   39.4160  152.0770 O.2   199  ASN199     -0.2716
     57  ND2       26.9020   40.4870  150.2330 N.am  199  ASN199     -0.0877
     58  N         29.4840   43.0010  148.4460 N.am  200  HIS200     -0.1959
     59  CA        28.9770   43.5800  147.2190 C.3   200  HIS200      0.1787
     60  C         29.6410   43.0420  145.9580 C.2   200  HIS200      0.2620
     61  O         29.0030   42.9790  144.9000 O.2   200  HIS200     -0.2715
     62  CB        29.0740   45.0950  147.2220 C.3   200  HIS200      0.0785
     63  CG        28.4290   45.7200  146.0270 C.ar  200  HIS200      0.0821
     64  ND1       27.0620   45.8570  145.9080 N.ar  200  HIS200     -0.2267
     65  CD2       28.9550   46.2050  144.8810 C.ar  200  HIS200      0.1154
     66  CE1       26.7780   46.4260  144.7520 C.ar  200  HIS200      0.1986
     67  NE2       27.9100   46.6560  144.1140 N.ar  200  HIS200     -0.2212
     68  N         30.9160   42.6720  146.0620 N.am  201  TRP201     -0.1974
     69  CA        31.6640   42.1690  144.9060 C.3   201  TRP201      0.1640
     70  C         30.9740   40.9260  144.3610 C.2   201  TRP201      0.2290
     71  O         30.9790   40.6530  143.1550 O.2   201  TRP201     -0.2864
     72  CB        33.1180   41.8750  145.2840 C.3   201  TRP201      0.0576
     73  CG        33.3180   40.6400  146.1170 C.ar  201  TRP201      0.0006
     74  CD1       33.3160   40.5530  147.4870 C.ar  201  TRP201      0.0946
     75  CD2       33.5510   39.3040  145.6340 C.ar  201  TRP201      0.0152
     76  NE1       33.5350   39.2480  147.8810 N.ar  201  TRP201     -0.2442
     77  CE2       33.6860   38.4650  146.7660 C.ar  201  TRP201      0.0810
     78  CE3       33.6520   38.7360  144.3550 C.ar  201  TRP201      0.0012
     79  CZ2       33.9230   37.0980  146.6570 C.ar  201  TRP201      0.0191
     80  CZ3       33.8920   37.3730  144.2520 C.ar  201  TRP201      0.0001
     81  CH2       34.0230   36.5700  145.3960 C.ar  201  TRP201      0.0015
     82  N         28.4730   41.1510  141.4960 N.3   204  TRP204     -0.1227
     83  CA        28.9160   41.5590  140.1870 C.3   204  TRP204      0.1737
     84  C         29.4620   40.3150  139.4890 C.2   204  TRP204      0.2595
     85  O         28.9700   39.9440  138.4270 O.2   204  TRP204     -0.2718
     86  CB        29.9490   42.6930  140.2730 C.3   204  TRP204      0.0564
     87  CG        29.3400   44.0440  140.6250 C.ar  204  TRP204      0.0003
     88  CD1       29.0640   44.5230  141.8810 C.ar  204  TRP204      0.0946
     89  CD2       28.9350   45.0760  139.7130 C.ar  204  TRP204      0.0152
     90  NE1       28.5130   45.7760  141.8010 N.ar  204  TRP204     -0.2442
     91  CE2       28.4180   46.1390  140.4870 C.ar  204  TRP204      0.0810
     92  CE3       28.9530   45.2020  138.3180 C.ar  204  TRP204      0.0012
     93  CZ2       27.9250   47.3100  139.9150 C.ar  204  TRP204      0.0191
     94  CZ3       28.4610   46.3740  137.7420 C.ar  204  TRP204      0.0001
     95  CH2       27.9600   47.4140  138.5400 C.ar  204  TRP204      0.0015
     96  N         30.4340   39.6450  140.1200 N.am  205  VAL205     -0.1980
     97  CA        31.0990   38.4630  139.5260 C.3   205  VAL205      0.1595
     98  C         30.2010   37.2210  139.5060 C.2   205  VAL205      0.2287
     99  O         30.1590   36.5080  138.5100 O.2   205  VAL205     -0.2864
    100  CB        32.5350   38.1660  140.1380 C.3   205  VAL205      0.0276
    101  CG1       33.1310   39.4270  140.7760 C.3   205  VAL205      0.0022
    102  CG2       32.5410   36.9860  141.1250 C.3   205  VAL205      0.0022
    103  N         27.6480   37.9010  136.7960 N.3   208  ILE208     -0.1231
    104  CA        28.3600   38.0270  135.5180 C.3   208  ILE208      0.1692
    105  C         28.9000   36.6810  135.0150 C.2   208  ILE208      0.2591
    106  O         28.7140   36.3500  133.8420 O.2   208  ILE208     -0.2718
    107  CB        29.4650   39.1190  135.5270 C.3   208  ILE208      0.0266
    108  CG1       28.8270   40.5080  135.4980 C.3   208  ILE208      0.0019
    109  CG2       30.3900   38.9660  134.3240 C.3   208  ILE208      0.0020
    110  CD1       29.8110   41.6690  135.6660 C.3   208  ILE208      0.0001
    111  N         29.5530   35.9160  135.8890 N.am  209  ILE209     -0.1980
    112  CA        30.0170   34.5740  135.5300 C.3   209  ILE209      0.1595
    113  C         28.8110   33.7610  135.0110 C.2   209  ILE209      0.2287
    114  O         28.8830   33.1600  133.9320 O.2   209  ILE209     -0.2864
    115  CB        30.7710   33.8450  136.7210 C.3   209  ILE209      0.0276
    116  CG1       32.1090   34.5120  137.0320 C.3   209  ILE209      0.0022
    117  CG2       31.0690   32.3810  136.4150 C.3   209  ILE209      0.0022
    118  CD1       32.6820   34.1050  138.4030 C.3   209  ILE209      0.0001
    119  N         27.6250   34.9860  131.5620 N.3   212  VAL212     -0.1245
    120  CA        28.4620   34.5030  130.4820 C.3   212  VAL212      0.1561
    121  C         28.2340   33.0110  130.2180 C.2   212  VAL212      0.2260
    122  O         27.8880   32.6270  129.0990 O.2   212  VAL212     -0.2867
    123  CB        29.9530   34.7660  130.7580 C.3   212  VAL212      0.0252
    124  CG1       30.8370   34.0220  129.7330 C.3   212  VAL212      0.0019
    125  CG2       30.2290   36.2710  130.7700 C.3   212  VAL212      0.0019
@<TRIPOS>BOND
     1     4     3    2
     2     3     2    1
     3   122   121    2
     4   124   123    1
     5     2     1    1
     6     2     5    1
     7   121   120    1
     8   120   123    1
     9   120   119    1
    10   123   125    1
    11     6     5    1
    12     5     7    1
    13     8     9    1
    14    15    13    1
    15    13    12    1
    16     9    12    1
    17     9    10    1
    18    12    14    1
    19    10    11    2
    20   106   105    2
    21   114   113    2
    22   109   107    1
    23   113   112    1
    24   105   104    1
    25   105   111   am
    26   108   107    1
    27   108   110    1
    28   104   107    1
    29   104   103    1
    30   112   111    1
    31   112   115    1
    32   117   115    1
    33   115   116    1
    34   116   118    1
    35    94    92   ar
    36    94    95   ar
    37    92    89   ar
    38    85    84    2
    39    99    98    2
    40    95    93   ar
    41    84    96   am
    42    84    83    1
    43    98    97    1
    44    97    96    1
    45    97   100    1
    46    89    91   ar
    47    89    87   ar
    48    93    91   ar
    49   100   101    1
    50   100   102    1
    51    83    86    1
    52    83    82    1
    53    86    87    1
    54    91    90   ar
    55    87    88   ar
    56    23    25   ar
    57    23    21   ar
    58    25    26   ar
    59    20    21    1
    60    20    17    1
    61    21    22   ar
    62    90    88   ar
    63    26    24   ar
    64    22    24   ar
    65    16    17    1
    66    17    18    1
    67    71    70    2
    68    18    19    2
    69    67    66   ar
    70    67    65   ar
    71    80    78   ar
    72    80    81   ar
    73    78    75   ar
    74    70    69    1
    75    66    64   ar
    76    65    63   ar
    77    61    60    2
    78    69    72    1
    79    69    68    1
    80    72    73    1
    81    81    79   ar
    82    75    73   ar
    83    75    77   ar
    84    40    39   ar
    85    40    38   ar
    86    64    63   ar
    87    60    68   am
    88    60    59    1
    89    39    37   ar
    90    63    62    1
    91    73    74   ar
    92    79    77   ar
    93    77    76   ar
    94    38    36   ar
    95    37    34   ar
    96    59    62    1
    97    59    58    1
    98    74    76   ar
    99    53    52    2
   100    36    34   ar
   101    36    35   ar
   102    34    32   ar
   103    58    52   am
   104    52    51    1
   105    35    33   ar
   106    32    31    1
   107    32    33   ar
   108    51    54    1
   109    51    50    1
   110    57    55   am
   111    54    55    1
   112    31    28    1
   113    30    29    2
   114    44    43    2
   115    28    29    1
   116    28    27    1
   117    55    56    2
   118    29    41   am
   119    50    43   am
   120    43    42    1
   121    41    42    1
   122    42    45    1
   123    45    46    1
   124    46    47    1
   125    49    47   ar
   126    47    48   ar
