@<TRIPOS>MOLECULE
tmp/2zz9A02.pdb
 90 86 0 0 0
SMALL
GASTEIGER

@<TRIPOS>ATOM
      1  N         20.8690   59.5890  118.0730 N.3     3  GLN3       -0.1245
      2  CA        19.6050   59.8030  118.7890 C.3     3  GLN3        0.1566
      3  C         18.9390   58.4780  119.1310 C.2     3  GLN3        0.2260
      4  O         18.4990   58.2700  120.2590 O.2     3  GLN3       -0.2867
      5  CB        18.6500   60.6980  117.9860 C.3     3  GLN3        0.0367
      6  CG        17.3570   61.0540  118.7370 C.3     3  GLN3        0.0905
      7  CD        16.5260   62.1580  118.0790 C.2     3  GLN3        0.2608
      8  OE1       15.3230   62.2660  118.3270 O.2     3  GLN3       -0.2717
      9  NE2       17.1660   62.9850  117.2550 N.am    3  GLN3       -0.0878
     10  N         20.8930   57.0910  121.9750 N.3     6  TRP6       -0.1227
     11  CA        20.7750   57.8280  123.2200 C.3     6  TRP6        0.1737
     12  C         19.3640   57.8470  123.7960 C.2     6  TRP6        0.2595
     13  O         19.1830   58.1090  124.9830 O.2     6  TRP6       -0.2718
     14  CB        21.3580   59.2330  123.1050 C.3     6  TRP6        0.0564
     15  CG        22.1680   59.5350  124.3080 C.ar    6  TRP6        0.0003
     16  CD1       21.6990   59.8750  125.5450 C.ar    6  TRP6        0.0946
     17  CD2       23.5950   59.4690  124.4240 C.ar    6  TRP6        0.0152
     18  NE1       22.7470   60.0530  126.4220 N.ar    6  TRP6       -0.2442
     19  CE2       23.9230   59.8120  125.7620 C.ar    6  TRP6        0.0810
     20  CE3       24.6300   59.1740  123.5280 C.ar    6  TRP6        0.0012
     21  CZ2       25.2420   59.8610  126.2260 C.ar    6  TRP6        0.0191
     22  CZ3       25.9470   59.2200  123.9910 C.ar    6  TRP6        0.0001
     23  CH2       26.2360   59.5690  125.3280 C.ar    6  TRP6        0.0015
     24  N         18.3760   57.5610  122.9540 N.am    7  LYS7       -0.1980
     25  CA        17.0310   57.2260  123.4150 C.3     7  LYS7        0.1596
     26  C         17.0720   55.9440  124.2440 C.2     7  LYS7        0.2287
     27  O         16.4410   55.8550  125.2920 O.2     7  LYS7       -0.2864
     28  CB        16.1090   56.9900  122.2230 C.3     7  LYS7        0.0298
     29  CG        15.2960   58.1770  121.7820 C.3     7  LYS7        0.0038
     30  CD        14.3800   57.7520  120.6460 C.3     7  LYS7        0.0206
     31  CE        13.2190   58.6960  120.4760 C.3     7  LYS7        0.1093
     32  NZ        13.6470   60.0860  120.1580 N.3     7  LYS7       -0.1314
     33  N         18.4810   56.3620  127.5310 N.3    10  THR10      -0.1218
     34  CA        17.4040   56.9750  128.3100 C.3    10  THR10       0.1862
     35  C         16.4280   55.9050  128.7740 C.2    10  THR10       0.2287
     36  O         16.1450   55.7880  129.9670 O.2    10  THR10      -0.2866
     37  CB        16.6150   58.0140  127.4780 C.3    10  THR10       0.1770
     38  OG1       17.5220   58.9390  126.8680 O.3    10  THR10      -0.2211
     39  CG2       15.5980   58.7680  128.3550 C.3    10  THR10       0.0375
     40  N         17.8590   53.9800  131.4540 N.3    13  PHE13      -0.1227
     41  CA        17.8950   54.7120  132.7220 C.3    13  PHE13       0.1736
     42  C         16.5170   54.7030  133.4170 C.2    13  PHE13       0.2595
     43  O         16.4180   54.2930  134.5780 O.2    13  PHE13      -0.2718
     44  CB        18.4560   56.1390  132.5190 C.3    13  PHE13       0.0547
     45  CG        18.3580   57.0320  133.7450 C.ar   13  PHE13      -0.0202
     46  CD1       19.4110   57.0970  134.6640 C.ar   13  PHE13      -0.0042
     47  CD2       17.2070   57.8150  133.9730 C.ar   13  PHE13      -0.0042
     48  CE1       19.3150   57.9200  135.7970 C.ar   13  PHE13      -0.0003
     49  CE2       17.0970   58.6350  135.0940 C.ar   13  PHE13      -0.0003
     50  CZ        18.1560   58.6960  136.0050 C.ar   13  PHE13      -0.0000
     51  N         15.4750   55.1330  132.7030 N.am   14  LEU14      -0.1980
     52  CA        14.0950   55.1280  133.2100 C.3    14  LEU14       0.1596
     53  C         13.5830   53.7640  133.6560 C.2    14  LEU14       0.2287
     54  O         12.7850   53.6660  134.5840 O.2    14  LEU14      -0.2864
     55  CB        13.1370   55.6350  132.1370 C.3    14  LEU14       0.0297
     56  CG        12.5740   57.0440  132.2200 C.3    14  LEU14       0.0022
     57  CD1       11.6460   57.3100  131.0210 C.3    14  LEU14       0.0001
     58  CD2       11.8210   57.2130  133.5320 C.3    14  LEU14       0.0001
     59  N         15.1040   52.6700  136.7920 N.3    17  LEU17      -0.1231
     60  CA        14.5110   53.6490  137.6910 C.3    17  LEU17       0.1693
     61  C         13.1550   53.2160  138.2560 C.2    17  LEU17       0.2591
     62  O         12.8400   53.4840  139.4160 O.2    17  LEU17      -0.2718
     63  CB        14.4040   55.0100  136.9760 C.3    17  LEU17       0.0284
     64  CG        13.5720   56.1640  137.5530 C.3    17  LEU17       0.0019
     65  CD1       13.8090   56.3840  139.0540 C.3    17  LEU17       0.0001
     66  CD2       13.8420   57.4420  136.7650 C.3    17  LEU17       0.0001
     67  N         12.3610   52.5560  137.4250 N.am   18  ILE18      -0.1980
     68  CA        11.0410   52.0980  137.8240 C.3    18  ILE18       0.1595
     69  C         11.1460   50.6880  138.3860 C.2    18  ILE18       0.2287
     70  O         10.5780   50.4020  139.4370 O.2    18  ILE18      -0.2864
     71  CB        10.0520   52.1620  136.6440 C.3    18  ILE18       0.0276
     72  CG1        9.6860   53.6200  136.3670 C.3    18  ILE18       0.0022
     73  CG2        8.8300   51.3030  136.9190 C.3    18  ILE18       0.0022
     74  CD1        9.3700   53.9260  134.9200 C.3    18  ILE18       0.0001
     75  N         12.6540   51.0600  141.9030 N.3    21  LEU21      -0.1245
     76  CA        11.6850   51.7760  142.7390 C.3    21  LEU21       0.1561
     77  C         10.4710   50.8930  143.0750 C.2    21  LEU21       0.2260
     78  O         10.1480   50.7040  144.2520 O.2    21  LEU21      -0.2867
     79  CB        11.2420   53.0940  142.1080 C.3    21  LEU21       0.0270
     80  CG        10.6370   54.2230  142.9660 C.3    21  LEU21       0.0019
     81  CD1       10.0620   55.3180  142.0540 C.3    21  LEU21       0.0001
     82  CD2        9.5650   53.7730  143.9640 C.3    21  LEU21       0.0001
     83  N         14.8520   58.2480  144.7030 N.3   102  ILE102     -0.1245
     84  CA        13.4530   58.6400  144.6820 C.3   102  ILE102      0.1561
     85  C         12.6620   57.8410  145.7210 C.2   102  ILE102      0.2260
     86  O         11.7940   58.3930  146.3930 O.2   102  ILE102     -0.2867
     87  CB        12.8150   58.4410  143.2860 C.3   102  ILE102      0.0252
     88  CG1       13.2310   59.5420  142.3160 C.3   102  ILE102      0.0019
     89  CG2       11.3140   58.4750  143.3690 C.3   102  ILE102      0.0019
     90  CD1       12.8450   59.2350  140.8590 C.3   102  ILE102      0.0001
@<TRIPOS>BOND
     1     9     7   am
     2     5     6    1
     3     5     2    1
     4     1     2    1
     5     7     8    2
     6     7     6    1
     7     2     3    1
     8     3     4    2
     9    32    31    1
    10    31    30    1
    11    30    29    1
    12    29    28    1
    13    10    11    1
    14    28    25    1
    15    24    25    1
    16    24    12   am
    17    14    11    1
    18    14    15    1
    19    11    12    1
    20    25    26    1
    21    20    22   ar
    22    20    17   ar
    23    12    13    2
    24    22    23   ar
    25    26    27    2
    26    15    17   ar
    27    15    16   ar
    28    17    19   ar
    29    23    21   ar
    30    16    18   ar
    31    19    21   ar
    32    19    18   ar
    33    38    37    1
    34    37    34    1
    35    37    39    1
    36    33    34    1
    37    34    35    1
    38    35    36    2
    39    57    56    1
    40    40    41    1
    41    55    56    1
    42    55    52    1
    43    56    58    1
    44    44    41    1
    45    44    45    1
    46    51    52    1
    47    51    42   am
    48    41    42    1
    49    52    53    1
    50    42    43    2
    51    53    54    2
    52    45    47   ar
    53    45    46   ar
    54    47    49   ar
    55    46    48   ar
    56    74    72    1
    57    49    50   ar
    58    48    50   ar
    59    72    71    1
    60    71    73    1
    61    71    68    1
    62    66    64    1
    63    59    60    1
    64    63    64    1
    65    63    60    1
    66    67    68    1
    67    67    61   am
    68    64    65    1
    69    60    61    1
    70    68    69    1
    71    61    62    2
    72    69    70    2
    73    90    88    1
    74    75    76    1
    75    81    80    1
    76    79    76    1
    77    79    80    1
    78    88    87    1
    79    76    77    1
    80    80    82    1
    81    77    78    2
    82    87    89    1
    83    87    84    1
    84    84    83    1
    85    84    85    1
    86    85    86    2
