@<TRIPOS>MOLECULE
tmp/2zzaA01.pdb
 177 169 0 0 0
SMALL
GASTEIGER

@<TRIPOS>ATOM
      1  N         11.4360   21.0380   23.2190 N.3     6  ILE6       -0.1231
      2  CA        10.9310   19.9120   23.9840 C.3     6  ILE6        0.1692
      3  C         11.9580   18.7870   24.0210 C.2     6  ILE6        0.2592
      4  O         12.5440   18.4280   22.9960 O.2     6  ILE6       -0.2718
      5  CB         9.5790   19.4110   23.4000 C.3     6  ILE6        0.0266
      6  CG1        9.1120   18.1570   24.1490 C.3     6  ILE6        0.0019
      7  CG2        9.7060   19.1670   21.8950 C.3     6  ILE6        0.0020
      8  CD1        7.6180   17.8400   23.9410 C.3     6  ILE6        0.0001
      9  N         12.1900   18.2510   25.2160 N.am    7  ALA7       -0.1966
     10  CA        13.1540   17.1760   25.3970 C.3     7  ALA7        0.1728
     11  C         12.8720   16.3750   26.6570 C.2     7  ALA7        0.2616
     12  O         12.1780   16.8450   27.5510 O.2     7  ALA7       -0.2715
     13  CB        14.5600   17.7520   25.4730 C.3     7  ALA7        0.0334
     14  N         13.4250   15.1640   26.7120 N.am    8  ALA8       -0.1977
     15  CA        13.2950   14.2860   27.8710 C.3     8  ALA8        0.1597
     16  C         14.7230   14.0010   28.3350 C.2     8  ALA8        0.2287
     17  O         15.5110   13.3840   27.6090 O.2     8  ALA8       -0.2864
     18  CB        12.5880   12.9890   27.4870 C.3     8  ALA8        0.0319
     19  N         17.7170    6.8840   22.0120 N.3    21  MET21      -0.1245
     20  CA        17.3410    7.2960   23.3600 C.3    21  MET21       0.1570
     21  C         17.8230    6.1690   24.2710 C.2    21  MET21       0.2261
     22  O         17.6420    4.9990   23.9480 O.2    21  MET21      -0.2867
     23  CB        15.8250    7.4190   23.4540 C.3    21  MET21       0.0387
     24  CG        15.2070    8.3020   22.3890 C.3    21  MET21       0.0595
     25  SD        15.0540    9.9600   22.9800 S.3    21  MET21      -0.1393
     26  CE        13.9930    9.6900   24.3490 C.3    21  MET21       0.0692
     27  N          5.7400    8.2490   27.6610 N.3    28  GLU28      -0.1231
     28  CA         6.4230    9.5380   27.5900 C.3    28  GLU28       0.1699
     29  C          6.4940    9.9960   26.1300 C.2    28  GLU28       0.2592
     30  O          6.4150   11.1900   25.8440 O.2    28  GLU28      -0.2718
     31  CB         7.8310    9.4380   28.1960 C.3    28  GLU28       0.0402
     32  CG         8.3820   10.7710   28.6840 C.3    28  GLU28       0.1161
     33  CD         8.8190   11.6890   27.5530 C.2    28  GLU28       0.3649
     34  OE1        8.6590   12.9270   27.6870 O.co2  28  GLU28      -0.2457
     35  OE2        9.3340   11.1740   26.5360 O.co2  28  GLU28      -0.2457
     36  N          6.6450    9.0460   25.2120 N.am   29  LEU29      -0.1966
     37  CA         6.6750    9.3710   23.7850 C.3    29  LEU29       0.1728
     38  C          5.3020    9.8970   23.3610 C.2    29  LEU29       0.2616
     39  O          5.1940   10.7190   22.4560 O.2    29  LEU29      -0.2715
     40  CB         7.0320    8.1350   22.9570 C.3    29  LEU29       0.0311
     41  CG         8.5220    7.8090   22.8530 C.3    29  LEU29       0.0022
     42  CD1        8.7200    6.5510   22.0170 C.3    29  LEU29       0.0001
     43  CD2        9.2440    8.9860   22.2180 C.3    29  LEU29       0.0001
     44  N          4.2510    9.4110   24.0150 N.am   30  GLN30      -0.1963
     45  CA         2.8970    9.8700   23.7160 C.3    30  GLN30       0.1733
     46  C          2.7400   11.2950   24.2500 C.2    30  GLN30       0.2616
     47  O          1.9550   12.0770   23.7340 O.2    30  GLN30      -0.2715
     48  CB         1.8560    8.9440   24.3580 C.3    30  GLN30       0.0408
     49  CG         1.7050    7.5970   23.6550 C.3    30  GLN30       0.0908
     50  CD         1.3550    7.7460   22.1780 C.2    30  GLN30       0.2608
     51  OE1        0.4170    8.4640   21.8200 O.2    30  GLN30      -0.2717
     52  NE2        2.1080    7.0650   21.3160 N.am   30  GLN30      -0.0878
     53  N          3.4890   11.6230   25.2970 N.am   31  LEU31      -0.1963
     54  CA         3.4470   12.9700   25.8590 C.3    31  LEU31       0.1728
     55  C          4.1290   13.8940   24.8370 C.2    31  LEU31       0.2616
     56  O          3.7000   15.0260   24.6140 O.2    31  LEU31      -0.2715
     57  CB         4.1750   12.9990   27.2070 C.3    31  LEU31       0.0311
     58  CG         4.2660   14.3220   27.9730 C.3    31  LEU31       0.0022
     59  CD1        4.6290   14.0380   29.4240 C.3    31  LEU31       0.0001
     60  CD2        5.3000   15.2330   27.3290 C.3    31  LEU31       0.0001
     61  N          5.1880   13.3950   24.2100 N.am   32  PHE32      -0.1960
     62  CA         5.8950   14.1540   23.1870 C.3    32  PHE32       0.1771
     63  C          4.9490   14.4130   22.0150 C.2    32  PHE32       0.2619
     64  O          4.8580   15.5310   21.5070 O.2    32  PHE32      -0.2715
     65  CB         7.0960   13.3630   22.6760 C.3    32  PHE32       0.0574
     66  CG         7.7500   13.9640   21.4670 C.ar   32  PHE32      -0.0200
     67  CD1        8.6630   15.0070   21.5940 C.ar   32  PHE32      -0.0042
     68  CD2        7.4530   13.4850   20.1930 C.ar   32  PHE32      -0.0042
     69  CE1        9.2790   15.5680   20.4650 C.ar   32  PHE32      -0.0003
     70  CE2        8.0590   14.0380   19.0610 C.ar   32  PHE32      -0.0003
     71  CZ         8.9770   15.0820   19.2000 C.ar   32  PHE32      -0.0000
     72  N          4.2590   13.3660   21.5770 N.am   33  LYS33      -0.1977
     73  CA         3.3370   13.5040   20.4580 C.3    33  LYS33       0.1596
     74  C          2.2420   14.4980   20.8080 C.2    33  LYS33       0.2287
     75  O          1.8560   15.3240   19.9870 O.2    33  LYS33      -0.2864
     76  CB         2.7110   12.1530   20.1050 C.3    33  LYS33       0.0298
     77  CG         1.7630   12.2330   18.9270 C.3    33  LYS33       0.0038
     78  CD         1.0840   10.9140   18.6480 C.3    33  LYS33       0.0206
     79  CE         0.1380   11.0590   17.4630 C.3    33  LYS33       0.1093
     80  NZ        -0.6820    9.8410   17.2170 N.3    33  LYS33      -0.1314
     81  N         18.9520   13.7640   14.5820 N.3    47  THR47      -0.1218
     82  CA        17.7040   13.4170   15.2490 C.3    47  THR47       0.1862
     83  C         16.7000   12.8620   14.2370 C.2    47  THR47       0.2287
     84  O         15.9800   11.9040   14.5240 O.2    47  THR47      -0.2866
     85  CB        17.0900   14.6390   15.9640 C.3    47  THR47       0.1770
     86  OG1       17.9410   15.0290   17.0460 O.3    47  THR47      -0.2211
     87  CG2       15.7040   14.3100   16.5130 C.3    47  THR47       0.0375
     88  N         17.5890    9.3530   13.5980 N.3    50  SER50      -0.1202
     89  CA        17.3680    8.4830   14.7500 C.3    50  SER50       0.2020
     90  C         15.8870    8.1240   14.8290 C.2    50  SER50       0.2618
     91  O         15.5250    7.0210   15.2340 O.2    50  SER50      -0.2717
     92  CB        17.7990    9.1710   16.0490 C.3    50  SER50       0.2103
     93  OG        16.9110   10.2120   16.4040 O.3    50  SER50      -0.2182
     94  N         15.0290    9.0610   14.4410 N.am   51  ILE51      -0.1979
     95  CA        13.5900    8.8250   14.4570 C.3    51  ILE51       0.1595
     96  C         13.2480    7.7910   13.3840 C.2    51  ILE51       0.2287
     97  O         12.4440    6.8890   13.6130 O.2    51  ILE51      -0.2864
     98  CB        12.8170   10.1420   14.2230 C.3    51  ILE51       0.0276
     99  CG1       13.0300   11.0640   15.4300 C.3    51  ILE51       0.0022
    100  CG2       11.3340    9.8650   14.0160 C.3    51  ILE51       0.0022
    101  CD1       12.3340   12.4050   15.3370 C.3    51  ILE51       0.0001
    102  N         11.8550    8.3600   10.2670 N.3    53  ARG53      -0.1245
    103  CA        10.8080    8.7250    9.3230 C.3    53  ARG53       0.1563
    104  C         10.1340    9.9990    9.7990 C.2    53  ARG53       0.2260
    105  O         10.2910   10.3980   10.9510 O.2    53  ARG53      -0.2867
    106  CB         9.7670    7.6040    9.1970 C.3    53  ARG53       0.0307
    107  CG         8.5200    7.7770   10.0480 C.3    53  ARG53       0.0489
    108  CD         8.8100    7.6250   11.5180 C.3    53  ARG53       0.2205
    109  NE         7.6050    7.7910   12.3260 N.pl3  53  ARG53      -0.0865
    110  CZ         7.2940    7.0080   13.3530 C.cat  53  ARG53       0.5346
    111  NH1        6.1840    7.2170   14.0500 N.pl3  53  ARG53       0.1354
    112  NH2        8.0930    6.0000   13.6710 N.pl3  53  ARG53       0.1354
    113  N          7.3920   12.4160   11.3080 N.3    55  LEU55      -0.1231
    114  CA         6.3550   12.1470   12.2920 C.3    55  LEU55       0.1678
    115  C          5.0380   12.6590   11.7210 C.2    55  LEU55       0.2434
    116  O          4.9530   13.7830   11.2210 O.2    55  LEU55      -0.2733
    117  CB         6.6890   12.8270   13.6220 C.3    55  LEU55       0.0284
    118  CG         7.9580   12.3070   14.3100 C.3    55  LEU55       0.0019
    119  CD1        8.2540   13.1290   15.5600 C.3    55  LEU55       0.0001
    120  CD2        7.7830   10.8390   14.6710 C.3    55  LEU55       0.0001
    121  N          3.9920   11.8280   11.7770 N.am   56  PRO56      -0.2729
    122  CA         2.6710   12.1860   11.2580 C.3    56  PRO56       0.1401
    123  C          1.9750   13.3490   11.9510 C.2    56  PRO56       0.2269
    124  O          2.1550   13.5810   13.1490 O.2    56  PRO56      -0.2865
    125  CB         1.8880   10.8830   11.3960 C.3    56  PRO56       0.0296
    126  CG         2.4810   10.2840   12.6380 C.3    56  PRO56       0.0237
    127  CD         3.9630   10.4960   12.4100 C.3    56  PRO56       0.0939
    128  N          2.4570   16.4900   11.6430 N.3    58  ARG58      -0.1245
    129  CA         3.3310   17.6150   11.9490 C.3    58  ARG58       0.1563
    130  C          4.1660   17.9800   10.7300 C.2    58  ARG58       0.2260
    131  O          4.4850   17.1210    9.9140 O.2    58  ARG58      -0.2867
    132  CB         4.2700   17.2580   13.1100 C.3    58  ARG58       0.0307
    133  CG         3.6520   17.4040   14.4960 C.3    58  ARG58       0.0489
    134  CD         4.2150   16.3790   15.4780 C.3    58  ARG58       0.2205
    135  NE         3.8140   15.0190   15.1170 N.pl3  58  ARG58      -0.0865
    136  CZ         4.0690   13.9330   15.8410 C.cat  58  ARG58       0.5346
    137  NH1        3.6530   12.7480   15.4150 N.pl3  58  ARG58       0.1354
    138  NH2        4.7330   14.0220   16.9880 N.pl3  58  ARG58       0.1354
    139  N         12.6730   20.1260   18.5140 N.3    96  ILE96      -0.1242
    140  CA        12.7310   18.8060   19.0260 C.3    96  ILE96       0.1601
    141  C         14.1050   18.1350   19.1530 C.2    96  ILE96       0.2264
    142  O         14.2150   17.0400   19.3810 O.2    96  ILE96      -0.2867
    143  CB        11.8270   17.9100   18.3840 C.3    96  ILE96       0.0472
    144  CG1       12.3360   17.5820   17.0310 C.2    96  ILE96      -0.0246
    145  CG2       10.4150   18.2870   18.4470 C.3    96  ILE96       0.0066
    146  CD1       11.9110   16.6260   16.5140 C.2    96  ILE96      -0.0049
    147  N         19.4130   22.2380   20.2930 N.3   102  TYR102     -0.1241
    148  CA        19.0430   22.7760   21.6000 C.3   102  TYR102      0.1605
    149  C         20.0850   23.8220   22.0020 C.2   102  TYR102      0.2264
    150  O         19.7420   24.8980   22.4860 O.2   102  TYR102     -0.2867
    151  CB        19.0220   21.6800   22.6700 C.3   102  TYR102      0.0534
    152  CG        17.9710   20.6070   22.4990 C.ar  102  TYR102     -0.0201
    153  CD1       16.6430   20.9330   22.2110 C.ar  102  TYR102     -0.0009
    154  CD2       18.2920   19.2640   22.7090 C.ar  102  TYR102     -0.0009
    155  CE1       15.6580   19.9480   22.1430 C.ar  102  TYR102      0.0417
    156  CE2       17.3220   18.2720   22.6460 C.ar  102  TYR102      0.0417
    157  CZ        16.0110   18.6180   22.3640 C.ar  102  TYR102      0.1957
    158  OH        15.0680   17.6290   22.2830 O.3   102  TYR102     -0.2866
    159  N          9.6890   22.4380   27.1370 N.3   113  TYR113     -0.1241
    160  CA         8.7670   21.3810   27.5290 C.3   113  TYR113      0.1605
    161  C          9.7130   20.2830   27.9820 C.2   113  TYR113      0.2264
    162  O         10.2090   19.5130   27.1600 O.2   113  TYR113     -0.2867
    163  CB         7.9520   20.8710   26.3400 C.3   113  TYR113      0.0534
    164  CG         6.8860   21.8030   25.8170 C.ar  113  TYR113     -0.0201
    165  CD1        7.2150   23.0110   25.2050 C.ar  113  TYR113     -0.0009
    166  CD2        5.5390   21.4400   25.8760 C.ar  113  TYR113     -0.0009
    167  CE1        6.2240   23.8320   24.6520 C.ar  113  TYR113      0.0417
    168  CE2        4.5460   22.2510   25.3350 C.ar  113  TYR113      0.0417
    169  CZ         4.8940   23.4410   24.7220 C.ar  113  TYR113      0.1957
    170  OH         3.9060   24.2220   24.1650 O.3   113  TYR113     -0.2866
    171  N         10.8180   16.8530   30.2620 N.3   115  THR115     -0.1218
    172  CA        10.4130   15.6590   30.9820 C.3   115  THR115      0.1862
    173  C         11.6790   15.1720   31.6760 C.2   115  THR115      0.2287
    174  O         12.6720   14.8450   31.0190 O.2   115  THR115     -0.2866
    175  CB         9.9210   14.5510   30.0530 C.3   115  THR115      0.1770
    176  OG1        8.6850   14.9440   29.4430 O.3   115  THR115     -0.2211
    177  CG2        9.7070   13.2660   30.8480 C.3   115  THR115      0.0375
@<TRIPOS>BOND
     1   106   103    1
     2   106   107    1
     3   103   104    1
     4   103   102    1
     5   104   105    2
     6   131   130    2
     7   107   108    1
     8   130   129    1
     9   116   115    2
    10   122   125    1
    11   122   121    1
    12   122   123    1
    13   113   114    1
    14   125   126    1
    15   108   109    1
    16   128   129    1
    17   115   121   am
    18   115   114    1
    19   121   127    1
    20   129   132    1
    21   123   124    2
    22   114   117    1
    23   109   110    2
    24   127   126    1
    25   132   133    1
    26   110   112    1
    27   110   111    1
    28    96    97    2
    29    96    95    1
    30    88    89    1
    31   117   118    1
    32   100    98    1
    33    98    95    1
    34    98    99    1
    35    83    84    2
    36    83    82    1
    37   118   120    1
    38   118   119    1
    39    94    95    1
    40    94    90   am
    41   133   134    1
    42    81    82    1
    43    89    90    1
    44    89    92    1
    45    90    91    2
    46   135   134    1
    47   135   136    2
    48    82    85    1
    49   101    99    1
    50   137   136    1
    51   136   138    1
    52    85    87    1
    53    85    86    1
    54    92    93    1
    55   146   144    2
    56   144   143    1
    57    80    79    1
    58    79    78    1
    59   143   145    1
    60   143   140    1
    61   139   140    1
    62    78    77    1
    63    77    76    1
    64   140   141    1
    65    70    71   ar
    66    70    68   ar
    67   141   142    2
    68    71    69   ar
    69    75    74    2
    70    76    73    1
    71    68    66   ar
    72   147   148    1
    73    73    74    1
    74    73    72    1
    75    69    67   ar
    76    52    50   am
    77    66    67   ar
    78    66    65    1
    79    64    63    2
    80    72    63   am
    81   148   149    1
    82   148   151    1
    83    51    50    2
    84     7     5    1
    85   149   150    2
    86    19    20    1
    87    63    62    1
    88    42    41    1
    89   155   153   ar
    90   155   157   ar
    91    50    49    1
    92   153   152   ar
    93    43    41    1
    94   158   157    1
    95   157   156   ar
    96    24    25    1
    97    24    23    1
    98    39    38    2
    99   152   151    1
   100   152   154   ar
   101   156   154   ar
   102    65    62    1
   103    41    40    1
   104    40    37    1
   105    25    26    1
   106     4     3    2
   107    62    61    1
   108     1     2    1
   109    20    23    1
   110    20    21    1
   111    38    37    1
   112    38    44   am
   113     5     2    1
   114     5     6    1
   115    49    48    1
   116    45    44    1
   117    45    46    1
   118    45    48    1
   119    47    46    2
   120    37    36    1
   121     8     6    1
   122    22    21    2
   123     2     3    1
   124     3     9   am
   125   170   169    1
   126    61    55   am
   127    46    53   am
   128    56    55    2
   129   167   169   ar
   130   167   165   ar
   131   169   168   ar
   132    55    54    1
   133   165   164   ar
   134    36    29   am
   135     9    10    1
   136    53    54    1
   137   168   166   ar
   138    10    13    1
   139    10    11    1
   140   164   166   ar
   141   164   163    1
   142    30    29    2
   143    54    57    1
   144    29    28    1
   145   163   160    1
   146    35    33   ar
   147    11    14   am
   148    11    12    2
   149    14    15    1
   150   159   160    1
   151   162   161    2
   152    57    58    1
   153    60    58    1
   154    18    15    1
   155   160   161    1
   156    33    34   ar
   157    33    32    1
   158    28    27    1
   159    28    31    1
   160    17    16    2
   161    15    16    1
   162    58    59    1
   163    31    32    1
   164   176   175    1
   165   175   177    1
   166   175   172    1
   167   171   172    1
   168   172   173    1
   169   174   173    2
