@<TRIPOS>MOLECULE
tmp/2zzaA02.pdb
 104 100 0 0 0
SMALL
GASTEIGER

@<TRIPOS>ATOM
      1  N          3.4890   11.6230   25.2970 N.3    31  LEU31      -0.1245
      2  CA         3.4470   12.9700   25.8590 C.3    31  LEU31       0.1561
      3  C          4.1290   13.8940   24.8370 C.2    31  LEU31       0.2260
      4  O          3.7000   15.0260   24.6140 O.2    31  LEU31      -0.2867
      5  CB         4.1750   12.9990   27.2070 C.3    31  LEU31       0.0270
      6  CG         4.2660   14.3220   27.9730 C.3    31  LEU31       0.0019
      7  CD1        4.6290   14.0380   29.4240 C.3    31  LEU31       0.0001
      8  CD2        5.3000   15.2330   27.3290 C.3    31  LEU31       0.0001
      9  N          1.7470   14.4080   22.0370 N.3    34  ARG34      -0.1231
     10  CA         0.6930   15.2940   22.5160 C.3    34  ARG34       0.1694
     11  C          1.1270   16.7580   22.4640 C.2    34  ARG34       0.2591
     12  O          0.3590   17.6340   22.0630 O.2    34  ARG34      -0.2718
     13  CB         0.3140   14.9150   23.9560 C.3    34  ARG34       0.0321
     14  CG        -0.6360   15.8920   24.6390 C.3    34  ARG34       0.0489
     15  CD        -0.9270   15.5130   26.0990 C.3    34  ARG34       0.2205
     16  NE        -1.7140   16.5530   26.7630 N.pl3  34  ARG34      -0.0865
     17  CZ        -2.2250   16.4690   27.9900 C.cat  34  ARG34       0.5346
     18  NH1       -2.9230   17.4860   28.4850 N.pl3  34  ARG34       0.1354
     19  NH2       -2.0460   15.3750   28.7190 N.pl3  34  ARG34       0.1354
     20  N          2.3700   17.0140   22.8520 N.am   35  ALA35      -0.1980
     21  CA         2.8910   18.3770   22.8780 C.3    35  ALA35       0.1597
     22  C          3.2990   18.9520   21.5260 C.2    35  ALA35       0.2287
     23  O          3.4830   20.1650   21.4020 O.2    35  ALA35      -0.2864
     24  CB         4.0740   18.4500   23.8410 C.3    35  ALA35       0.0319
     25  N          1.8710   20.9380   15.1840 N.3    39  LYS39      -0.1245
     26  CA         2.8320   22.0320   15.2060 C.3    39  LYS39       0.1561
     27  C          4.0380   21.7030   14.3420 C.2    39  LYS39       0.2260
     28  O          4.3290   20.5360   14.0780 O.2    39  LYS39      -0.2867
     29  CB         3.3350   22.2800   16.6300 C.3    39  LYS39       0.0271
     30  CG         2.2610   22.5160   17.6800 C.3    39  LYS39       0.0035
     31  CD         2.9220   22.7110   19.0380 C.3    39  LYS39       0.0206
     32  CE         1.9090   22.8580   20.1630 C.3    39  LYS39       0.1093
     33  NZ         2.5990   22.7760   21.4920 N.3    39  LYS39      -0.1314
     34  N          9.6890   22.4380   27.1370 N.3   113  TYR113     -0.1241
     35  CA         8.7670   21.3810   27.5290 C.3   113  TYR113      0.1605
     36  C          9.7130   20.2830   27.9820 C.2   113  TYR113      0.2264
     37  O         10.2090   19.5130   27.1600 O.2   113  TYR113     -0.2867
     38  CB         7.9520   20.8710   26.3400 C.3   113  TYR113      0.0534
     39  CG         6.8860   21.8030   25.8170 C.ar  113  TYR113     -0.0201
     40  CD1        7.2150   23.0110   25.2050 C.ar  113  TYR113     -0.0009
     41  CD2        5.5390   21.4400   25.8760 C.ar  113  TYR113     -0.0009
     42  CE1        6.2240   23.8320   24.6520 C.ar  113  TYR113      0.0417
     43  CE2        4.5460   22.2510   25.3350 C.ar  113  TYR113      0.0417
     44  CZ         4.8940   23.4410   24.7220 C.ar  113  TYR113      0.1957
     45  OH         3.9060   24.2220   24.1650 O.3   113  TYR113     -0.2866
     46  N          3.5400   24.6380   34.2380 N.3   139  GLU139     -0.1231
     47  CA         2.7840   23.4090   34.4420 C.3   139  GLU139      0.1699
     48  C          3.7310   22.3130   34.8720 C.2   139  GLU139      0.2592
     49  O          4.9430   22.4160   34.6940 O.2   139  GLU139     -0.2718
     50  CB         2.1020   22.9350   33.1530 C.3   139  GLU139      0.0402
     51  CG         1.3810   23.9800   32.3380 C.3   139  GLU139      0.1161
     52  CD         0.4790   23.3510   31.2810 C.2   139  GLU139      0.3649
     53  OE1        0.8210   22.2580   30.7620 O.co2 139  GLU139     -0.2457
     54  OE2       -0.5690   23.9530   30.9650 O.co2 139  GLU139     -0.2457
     55  N          3.1680   21.2540   35.4340 N.am  140  HIS140     -0.1962
     56  CA         3.9690   20.1220   35.8550 C.3   140  HIS140      0.1787
     57  C          3.0710   18.9490   36.1870 C.2   140  HIS140      0.2620
     58  O          1.9110   19.1250   36.5640 O.2   140  HIS140     -0.2715
     59  CB         4.8340   20.4930   37.0650 C.3   140  HIS140      0.0785
     60  CG         4.0820   20.5580   38.3560 C.ar  140  HIS140      0.0821
     61  ND1        3.6760   19.4300   39.0390 N.ar  140  HIS140     -0.2267
     62  CD2        3.6680   21.6150   39.0950 C.ar  140  HIS140      0.1154
     63  CE1        3.0470   19.7910   40.1450 C.ar  140  HIS140      0.1986
     64  NE2        3.0290   21.1110   40.2020 N.ar  140  HIS140     -0.2212
     65  N          3.6050   17.7500   36.0130 N.am  141  GLU141     -0.1977
     66  CA         2.8690   16.5420   36.3270 C.3   141  GLU141      0.1602
     67  C          3.8800   15.4350   36.5450 C.2   141  GLU141      0.2287
     68  O          4.8210   15.2800   35.7670 O.2   141  GLU141     -0.2864
     69  CB         1.9200   16.1600   35.1910 C.3   141  GLU141      0.0415
     70  CG         1.0920   14.9220   35.5080 C.3   141  GLU141      0.1163
     71  CD         0.1230   15.1460   36.6620 C.2   141  GLU141      0.3649
     72  OE1       -1.0040   15.6230   36.4040 O.co2 141  GLU141     -0.2457
     73  OE2        0.4910   14.8580   37.8270 O.co2 141  GLU141     -0.2457
     74  N          4.7620   11.3870   36.9180 N.3   143  TYR143     -0.1241
     75  CA         4.2590   10.1070   36.4520 C.3   143  TYR143      0.1605
     76  C          5.0600    8.9830   37.0920 C.2   143  TYR143      0.2264
     77  O          6.2440    8.8080   36.8040 O.2   143  TYR143     -0.2867
     78  CB         4.3510   10.0170   34.9280 C.3   143  TYR143      0.0534
     79  CG         3.5360   11.0660   34.1950 C.ar  143  TYR143     -0.0201
     80  CD1        4.0050   12.3730   34.0530 C.ar  143  TYR143     -0.0009
     81  CD2        2.3000   10.7490   33.6320 C.ar  143  TYR143     -0.0009
     82  CE1        3.2680   13.3350   33.3680 C.ar  143  TYR143      0.0417
     83  CE2        1.5510   11.7080   32.9450 C.ar  143  TYR143      0.0417
     84  CZ         2.0440   12.9970   32.8160 C.ar  143  TYR143      0.1957
     85  OH         1.3160   13.9420   32.1290 O.3   143  TYR143     -0.2866
     86  N          6.9790   15.9080   34.1720 N.3   155  PHE155     -0.1241
     87  CA         6.8810   16.8890   33.1030 C.3   155  PHE155      0.1605
     88  C          6.9110   18.2890   33.7050 C.2   155  PHE155      0.2264
     89  O          6.2970   18.5430   34.7380 O.2   155  PHE155     -0.2867
     90  CB         5.5860   16.7250   32.3130 C.3   155  PHE155      0.0534
     91  CG         5.3830   17.7930   31.2840 C.ar  155  PHE155     -0.0203
     92  CD1        6.1770   17.8330   30.1400 C.ar  155  PHE155     -0.0042
     93  CD2        4.4440   18.7990   31.4850 C.ar  155  PHE155     -0.0042
     94  CE1        6.0420   18.8650   29.2090 C.ar  155  PHE155     -0.0003
     95  CE2        4.3000   19.8340   30.5660 C.ar  155  PHE155     -0.0003
     96  CZ         5.1030   19.8680   29.4240 C.ar  155  PHE155     -0.0000
     97  N          6.7510   22.4640   32.3510 N.3   157  LEU157     -0.1245
     98  CA         6.6580   23.4440   31.2820 C.3   157  LEU157      0.1561
     99  C          7.2460   24.7290   31.8330 C.2   157  LEU157      0.2260
    100  O          6.6800   25.3490   32.7360 O.2   157  LEU157     -0.2867
    101  CB         5.2050   23.6640   30.8630 C.3   157  LEU157      0.0270
    102  CG         5.0120   24.6420   29.6990 C.3   157  LEU157      0.0019
    103  CD1        5.7630   24.1420   28.4770 C.3   157  LEU157      0.0001
    104  CD2        3.5310   24.7860   29.3900 C.3   157  LEU157      0.0001
@<TRIPOS>BOND
     1    28    27    2
     2    27    26    1
     3    25    26    1
     4    26    29    1
     5    29    30    1
     6    30    31    1
     7    31    32    1
     8    32    33    1
     9    23    22    2
    10    22    21    1
    11     9    10    1
    12    12    11    2
    13    11    10    1
    14    11    20   am
    15    10    13    1
    16    20    21    1
    17    21    24    1
    18    13    14    1
    19    45    44    1
    20     4     3    2
    21    14    15    1
    22    42    44   ar
    23    42    40   ar
    24    44    43   ar
    25     3     2    1
    26    40    39   ar
    27     1     2    1
    28    43    41   ar
    29    39    41   ar
    30    39    38    1
    31     2     5    1
    32    15    16    1
    33    38    35    1
    34    16    17    2
    35    34    35    1
    36    37    36    2
    37     5     6    1
    38     8     6    1
    39    35    36    1
    40     6     7    1
    41    17    18    1
    42    17    19    1
    43   103   102    1
    44    94    96   ar
    45    94    92   ar
    46   104   102    1
    47    96    95   ar
    48   102   101    1
    49    92    91   ar
    50    95    93   ar
    51    53    52   ar
    52   101    98    1
    53    54    52   ar
    54    52    51    1
    55    98    99    1
    56    98    97    1
    57    91    93   ar
    58    91    90    1
    59    99   100    2
    60    85    84    1
    61    90    87    1
    62    51    50    1
    63    84    83   ar
    64    84    82   ar
    65    83    81   ar
    66    87    88    1
    67    87    86    1
    68    50    47    1
    69    82    80   ar
    70    81    79   ar
    71    88    89    2
    72    80    79   ar
    73    79    78    1
    74    46    47    1
    75    47    48    1
    76    49    48    2
    77    48    55   am
    78    78    75    1
    79    69    70    1
    80    69    66    1
    81    55    56    1
    82    70    71    1
    83    68    67    2
    84    56    57    1
    85    56    59    1
    86    65    57   am
    87    65    66    1
    88    57    58    2
    89    66    67    1
    90    72    71   ar
    91    75    74    1
    92    75    76    1
    93    71    73   ar
    94    77    76    2
    95    59    60    1
    96    60    61   ar
    97    60    62   ar
    98    61    63   ar
    99    62    64   ar
   100    63    64   ar
