@<TRIPOS>MOLECULE
tmp/2zzgA00.pdb
 179 174 0 0 0
SMALL
GASTEIGER

@<TRIPOS>ATOM
      1  N        -15.9200   25.3650  -36.5740 N.3    98  ALA98      -0.1245
      2  CA       -17.3240   25.4410  -36.8720 C.3    98  ALA98       0.1562
      3  C        -17.6120   26.8840  -37.2380 C.2    98  ALA98       0.2260
      4  O        -16.8610   27.7910  -36.8710 O.2    98  ALA98      -0.2867
      5  CB       -18.1340   25.0190  -35.6660 C.3    98  ALA98       0.0290
      6  N        -10.6550   20.8470  -39.5820 N.3   127  ARG127     -0.1245
      7  CA       -10.6260   19.9890  -38.4040 C.3   127  ARG127      0.1563
      8  C         -9.5570   18.9190  -38.5310 C.2   127  ARG127      0.2260
      9  O         -9.6690   18.0340  -39.3630 O.2   127  ARG127     -0.2867
     10  CB       -11.9760   19.2790  -38.2010 C.3   127  ARG127      0.0307
     11  CG       -13.2150   20.0970  -38.5100 C.3   127  ARG127      0.0489
     12  CD       -13.8730   20.6700  -37.2820 C.3   127  ARG127      0.2205
     13  NE       -15.0370   19.8910  -36.8700 N.pl3 127  ARG127     -0.0865
     14  CZ       -16.2590   20.3880  -36.6680 C.cat 127  ARG127      0.5346
     15  NH1      -16.5150   21.6790  -36.8240 N.pl3 127  ARG127      0.1354
     16  NH2      -17.2330   19.5830  -36.2830 N.pl3 127  ARG127      0.1354
     17  N         -9.8300   14.7910  -37.2710 N.3   130  ASP130     -0.1239
     18  CA       -10.2630   13.6790  -38.1170 C.3   130  ASP130      0.1674
     19  C         -9.3360   13.4480  -39.2940 C.2   130  ASP130      0.2266
     20  O         -9.6610   12.7050  -40.2340 O.2   130  ASP130     -0.2867
     21  CB       -11.6970   13.9110  -38.5940 C.3   130  ASP130      0.1410
     22  CG       -12.7060   13.7640  -37.4680 C.2   130  ASP130      0.3668
     23  OD1      -13.3450   14.7910  -37.1100 O.co2 130  ASP130     -0.2456
     24  OD2      -12.8310   12.6290  -36.9270 O.co2 130  ASP130     -0.2456
     25  N        -16.3230    9.8620  -45.4000 N.3   139  ARG139     -0.1231
     26  CA       -17.1510   10.9990  -44.9920 C.3   139  ARG139      0.1694
     27  C        -16.3750   12.2110  -44.4290 C.2   139  ARG139      0.2592
     28  O        -16.8750   13.3340  -44.4730 O.2   139  ARG139     -0.2718
     29  CB       -18.2640   10.5460  -44.0310 C.3   139  ARG139      0.0321
     30  CG       -17.8940   10.6910  -42.5690 C.3   139  ARG139      0.0489
     31  CD       -18.9260   10.1880  -41.5970 C.3   139  ARG139      0.2205
     32  NE       -18.7620    8.7570  -41.3280 N.pl3 139  ARG139     -0.0865
     33  CZ       -18.4580    8.2250  -40.1400 C.cat 139  ARG139      0.5346
     34  NH1      -18.2670    8.9880  -39.0710 N.pl3 139  ARG139      0.1354
     35  NH2      -18.3600    6.9130  -40.0210 N.pl3 139  ARG139      0.1354
     36  N        -15.1710   12.0010  -43.8940 N.am  140  HIS140     -0.1962
     37  CA       -14.4110   13.1250  -43.2990 C.3   140  HIS140      0.1787
     38  C        -13.4980   13.8740  -44.2650 C.2   140  HIS140      0.2620
     39  O        -12.9660   13.3110  -45.2170 O.2   140  HIS140     -0.2715
     40  CB       -13.5820   12.6740  -42.1150 C.3   140  HIS140      0.0785
     41  CG       -14.3540   11.8990  -41.1060 C.ar  140  HIS140      0.0821
     42  ND1      -14.5090   10.5330  -41.1800 N.ar  140  HIS140     -0.2267
     43  CD2      -15.0180   12.2930  -39.9990 C.ar  140  HIS140      0.1154
     44  CE1      -15.2220   10.1130  -40.1540 C.ar  140  HIS140      0.1986
     45  NE2      -15.5510   11.1620  -39.4250 N.ar  140  HIS140     -0.2212
     46  N        -13.3460   15.1640  -44.0000 N.am  141  PHE141     -0.1974
     47  CA       -12.4220   16.0110  -44.7150 C.3   141  PHE141      0.1639
     48  C        -11.6400   16.7970  -43.6920 C.2   141  PHE141      0.2290
     49  O        -11.9910   16.8480  -42.5060 O.2   141  PHE141     -0.2864
     50  CB       -13.1670   17.0240  -45.5740 C.3   141  PHE141      0.0560
     51  CG       -13.9190   16.4240  -46.7170 C.ar  141  PHE141     -0.0200
     52  CD1      -15.0580   15.6420  -46.4970 C.ar  141  PHE141     -0.0042
     53  CD2      -13.5210   16.6740  -48.0260 C.ar  141  PHE141     -0.0042
     54  CE1      -15.7630   15.0980  -47.5630 C.ar  141  PHE141     -0.0003
     55  CE2      -14.2270   16.1360  -49.0970 C.ar  141  PHE141     -0.0003
     56  CZ       -15.3460   15.3520  -48.8670 C.ar  141  PHE141     -0.0000
     57  N        -14.0980   21.4480  -45.1560 N.3   144  PHE144     -0.1241
     58  CA       -15.4530   21.2950  -45.6310 C.3   144  PHE144      0.1605
     59  C        -16.1990   22.5940  -45.3720 C.2   144  PHE144      0.2264
     60  O        -15.7100   23.4710  -44.6500 O.2   144  PHE144     -0.2867
     61  CB       -16.1020   20.1020  -44.9400 C.3   144  PHE144      0.0534
     62  CG       -16.2010   20.2430  -43.4570 C.ar  144  PHE144     -0.0203
     63  CD1      -17.3990   20.6210  -42.8590 C.ar  144  PHE144     -0.0042
     64  CD2      -15.1040   20.0020  -42.6440 C.ar  144  PHE144     -0.0042
     65  CE1      -17.5020   20.7450  -41.4670 C.ar  144  PHE144     -0.0003
     66  CE2      -15.2000   20.1380  -41.2570 C.ar  144  PHE144     -0.0003
     67  CZ       -16.4000   20.5060  -40.6690 C.ar  144  PHE144     -0.0000
     68  N        -19.1540   24.2950  -43.6230 N.3   146  MET146     -0.1245
     69  CA       -20.2450   24.3060  -42.7020 C.3   146  MET146      0.1570
     70  C        -21.2340   25.4160  -43.0620 C.2   146  MET146      0.2261
     71  O        -20.9310   26.6140  -42.9550 O.2   146  MET146     -0.2867
     72  CB       -19.7410   24.4830  -41.2930 C.3   146  MET146      0.0387
     73  CG       -20.8410   24.4300  -40.3100 C.3   146  MET146      0.0595
     74  SD       -20.2570   24.1470  -38.6550 S.3   146  MET146     -0.1393
     75  CE       -19.1970   22.7230  -38.8670 C.3   146  MET146      0.0692
     76  N        -23.2060   19.5770  -27.4370 N.3   191  TRP191     -0.1241
     77  CA       -22.1050   19.9940  -28.2570 C.3   191  TRP191      0.1605
     78  C        -21.4250   21.1210  -27.5420 C.2   191  TRP191      0.2264
     79  O        -22.0760   22.0650  -27.1050 O.2   191  TRP191     -0.2867
     80  CB       -22.6040   20.4490  -29.6170 C.3   191  TRP191      0.0550
     81  CG       -21.5110   20.7300  -30.5760 C.ar  191  TRP191      0.0003
     82  CD1      -20.9870   19.8690  -31.5010 C.ar  191  TRP191      0.0946
     83  CD2      -20.7950   21.9570  -30.7150 C.ar  191  TRP191      0.0152
     84  NE1      -20.0030   20.4900  -32.2150 N.ar  191  TRP191     -0.2442
     85  CE2      -19.8600   21.7750  -31.7540 C.ar  191  TRP191      0.0810
     86  CE3      -20.8540   23.2000  -30.0640 C.ar  191  TRP191      0.0012
     87  CZ2      -18.9790   22.7860  -32.1510 C.ar  191  TRP191      0.0191
     88  CZ3      -19.9960   24.2090  -30.4700 C.ar  191  TRP191      0.0001
     89  CH2      -19.0660   23.9950  -31.4990 C.ar  191  TRP191      0.0015
     90  N        -24.7730   11.2490  -40.6920 N.3   209  GLU209     -0.1231
     91  CA       -24.9640   12.5200  -40.0380 C.3   209  GLU209      0.1699
     92  C        -24.7020   13.6880  -40.9840 C.2   209  GLU209      0.2592
     93  O        -23.5530   13.9400  -41.3190 O.2   209  GLU209     -0.2718
     94  CB       -23.9760   12.6030  -38.8940 C.3   209  GLU209      0.0402
     95  CG       -24.1110   13.8750  -38.0980 C.3   209  GLU209      0.1161
     96  CD       -22.8060   14.3100  -37.4460 C.2   209  GLU209      0.3649
     97  OE1      -22.7430   15.4990  -37.0450 O.co2 209  GLU209     -0.2457
     98  OE2      -21.8560   13.4820  -37.3320 O.co2 209  GLU209     -0.2457
     99  N        -25.7590   14.4020  -41.3840 N.am  210  VAL210     -0.1966
    100  CA       -25.6730   15.5240  -42.3480 C.3   210  VAL210      0.1727
    101  C        -25.7640   16.8960  -41.7180 C.2   210  VAL210      0.2616
    102  O        -25.3370   17.8770  -42.3120 O.2   210  VAL210     -0.2715
    103  CB       -26.7730   15.4880  -43.4480 C.3   210  VAL210      0.0290
    104  CG1      -26.6350   14.2490  -44.3270 C.3   210  VAL210      0.0023
    105  CG2      -28.1670   15.5790  -42.8460 C.3   210  VAL210      0.0023
    106  N        -26.3610   16.9940  -40.5380 N.am  211  ALA211     -0.1963
    107  CA       -26.4280   18.2940  -39.8710 C.3   211  ALA211      0.1728
    108  C        -26.3280   18.1370  -38.3710 C.2   211  ALA211      0.2616
    109  O        -26.4600   17.0180  -37.8490 O.2   211  ALA211     -0.2715
    110  CB       -27.6810   19.0720  -40.2670 C.3   211  ALA211      0.0334
    111  N        -26.0420   19.2470  -37.6930 N.am  212  THR212     -0.1951
    112  CA       -26.0000   19.2620  -36.2340 C.3   212  THR212      0.1897
    113  C        -26.6220   20.5650  -35.7950 C.2   212  THR212      0.2313
    114  O        -26.3110   21.6170  -36.3790 O.2   212  THR212     -0.2863
    115  CB       -24.5580   19.1370  -35.6770 C.3   212  THR212      0.1794
    116  OG1      -24.0510   17.8280  -35.9650 O.3   212  THR212     -0.2208
    117  CG2      -24.5250   19.3460  -34.1640 C.3   212  THR212      0.0378
    118  N        -27.3920   23.0190  -32.4770 N.3   214  VAL214     -0.1245
    119  CA       -26.9850   23.2610  -31.1050 C.3   214  VAL214      0.1561
    120  C        -27.7580   24.4340  -30.5240 C.2   214  VAL214      0.2260
    121  O        -27.9450   25.5070  -31.1730 O.2   214  VAL214     -0.2867
    122  CB       -25.4600   23.5120  -30.9620 C.3   214  VAL214      0.0252
    123  CG1      -25.0190   23.2750  -29.5380 C.3   214  VAL214      0.0019
    124  CG2      -24.7040   22.6080  -31.8630 C.3   214  VAL214      0.0019
    125  N        -26.9590   27.5390  -32.9400 N.3   244  ASP244     -0.1225
    126  CA       -25.7550   27.0900  -33.6340 C.3   244  ASP244      0.1805
    127  C        -26.0870   25.9100  -34.5120 C.2   244  ASP244      0.2598
    128  O        -26.3110   24.8060  -34.0260 O.2   244  ASP244     -0.2718
    129  CB       -24.6730   26.6970  -32.6180 C.3   244  ASP244      0.1424
    130  CG       -23.3940   26.1650  -33.2730 C.2   244  ASP244      0.3668
    131  OD1      -23.2520   26.2180  -34.5250 O.co2 244  ASP244     -0.2456
    132  OD2      -22.5100   25.6960  -32.5100 O.co2 244  ASP244     -0.2456
    133  N        -26.1270   26.1470  -35.8100 N.am  245  THR245     -0.1939
    134  CA       -26.4110   25.0780  -36.7490 C.3   245  THR245      0.2028
    135  C        -25.1670   24.7710  -37.5840 C.2   245  THR245      0.2643
    136  O        -24.2810   25.6210  -37.7430 O.2   245  THR245     -0.2714
    137  CB       -27.6130   25.4150  -37.6520 C.3   245  THR245      0.1808
    138  OG1      -27.4550   26.7240  -38.2030 O.3   245  THR245     -0.2208
    139  CG2      -28.8760   25.3950  -36.8450 C.3   245  THR245      0.0379
    140  N        -25.0950   23.5490  -38.1000 N.am  246  GLY246     -0.1939
    141  CA       -23.9560   23.1200  -38.8670 C.3   246  GLY246      0.2014
    142  C        -24.4230   22.1020  -39.8530 C.2   246  GLY246      0.2639
    143  O        -24.8610   21.0240  -39.4770 O.2   246  GLY246     -0.2714
    144  N        -24.3410   22.4780  -41.1220 N.am  247  TYR247     -0.1959
    145  CA       -24.7790   21.6460  -42.2410 C.3   247  TYR247      0.1771
    146  C        -23.6220   21.2060  -43.1410 C.2   247  TYR247      0.2620
    147  O        -23.0470   22.0190  -43.8900 O.2   247  TYR247     -0.2715
    148  CB       -25.8060   22.3940  -43.0950 C.3   247  TYR247      0.0574
    149  CG       -27.1410   22.5610  -42.4450 C.ar  247  TYR247     -0.0198
    150  CD1      -28.1750   21.6760  -42.7110 C.ar  247  TYR247     -0.0009
    151  CD2      -27.3770   23.6150  -41.5570 C.ar  247  TYR247     -0.0009
    152  CE1      -29.4120   21.8340  -42.1100 C.ar  247  TYR247      0.0417
    153  CE2      -28.6050   23.7840  -40.9570 C.ar  247  TYR247      0.0417
    154  CZ       -29.6140   22.8930  -41.2400 C.ar  247  TYR247      0.1957
    155  OH       -30.8270   23.0570  -40.6430 O.3   247  TYR247     -0.2866
    156  N        -23.3170   19.9130  -43.0770 N.am  248  GLY248     -0.1954
    157  CA       -22.3250   19.3130  -43.9420 C.3   248  GLY248      0.1869
    158  C        -22.7100   19.3730  -45.4020 C.2   248  GLY248      0.2309
    159  O        -23.4490   18.5150  -45.8810 O.2   248  GLY248     -0.2863
    160  N        -20.6390   19.0770  -48.3200 N.3   250  GLU250     -0.1231
    161  CA       -20.0630   17.8530  -48.8710 C.3   250  GLU250      0.1699
    162  C        -20.9740   16.6710  -48.6040 C.2   250  GLU250      0.2592
    163  O        -21.3100   15.9240  -49.5100 O.2   250  GLU250     -0.2718
    164  CB       -18.7070   17.5620  -48.2110 C.3   250  GLU250      0.0402
    165  CG       -17.6270   18.6300  -48.4060 C.3   250  GLU250      0.1161
    166  CD       -17.9730   19.9830  -47.7720 C.2   250  GLU250      0.3649
    167  OE1      -18.7130   20.0010  -46.7390 O.co2 250  GLU250     -0.2457
    168  OE2      -17.4930   21.0200  -48.3140 O.co2 250  GLU250     -0.2457
    169  N        -21.3790   16.5160  -47.3510 N.am  251  ARG251     -0.1980
    170  CA       -22.1300   15.3430  -46.9520 C.3   251  ARG251      0.1597
    171  C        -23.4700   15.2320  -47.6820 C.2   251  ARG251      0.2287
    172  O        -23.8370   14.1560  -48.1690 O.2   251  ARG251     -0.2864
    173  CB       -22.2550   15.2920  -45.4350 C.3   251  ARG251      0.0334
    174  CG       -20.9240   14.9350  -44.7980 C.3   251  ARG251      0.0492
    175  CD       -21.0930   14.2490  -43.4690 C.3   251  ARG251      0.2205
    176  NE       -19.8210   14.0300  -42.7800 N.pl3 251  ARG251     -0.0865
    177  CZ       -19.7180   13.7960  -41.4770 C.cat 251  ARG251      0.5346
    178  NH1      -20.8120   13.7650  -40.7220 N.pl3 251  ARG251      0.1354
    179  NH2      -18.5270   13.6050  -40.9240 N.pl3 251  ARG251      0.1354
@<TRIPOS>BOND
     1   163   162    2
     2    55    56   ar
     3    55    53   ar
     4   161   162    1
     5   161   160    1
     6   161   164    1
     7    56    54   ar
     8   162   169   am
     9   165   164    1
    10   165   166    1
    11   168   166   ar
    12   172   171    2
    13    53    51   ar
    14   166   167   ar
    15   171   170    1
    16    54    52   ar
    17   169   170    1
    18   170   173    1
    19    51    52   ar
    20    51    50    1
    21   159   158    2
    22    58    59    1
    23    58    57    1
    24    58    61    1
    25    50    47    1
    26   173   174    1
    27   158   157    1
    28    25    26    1
    29    59    60    2
    30    39    38    2
    31    26    27    1
    32    26    29    1
    33    61    62    1
    34   174   175    1
    35    47    46    1
    36    47    48    1
    37    28    27    2
    38    27    36   am
    39   104   103    1
    40    38    46   am
    41    38    37    1
    42    29    30    1
    43   157   156    1
    44    36    37    1
    45   147   146    2
    46    48    49    2
    47    68    69    1
    48   175   176    1
    49    62    63   ar
    50    62    64   ar
    51   103   105    1
    52   103   100    1
    53    37    40    1
    54   146   156   am
    55   146   145    1
    56   148   149    1
    57   148   145    1
    58    70    71    2
    59    70    69    1
    60    63    65   ar
    61   176   177    2
    62   150   149   ar
    63   150   152   ar
    64    69    72    1
    65    64    66   ar
    66    30    31    1
    67   149   151   ar
    68   100   101    1
    69   100    99    1
    70   102   101    2
    71   145   144    1
    72    40    41    1
    73   152   154   ar
    74   101   106   am
    75    31    32    1
    76   151   153   ar
    77   177   179    1
    78   177   178    1
    79    65    67   ar
    80    99    92   am
    81    32    33    2
    82    93    92    2
    83    72    73    1
    84    66    67   ar
    85   154   153   ar
    86   154   155    1
    87    42    41   ar
    88    42    44   ar
    89   144   142   am
    90    41    43   ar
    91    92    91    1
    92    90    91    1
    93   106   107    1
    94    73    74    1
    95   110   107    1
    96    20    19    2
    97    44    45   ar
    98    33    35    1
    99    33    34    1
   100    91    94    1
   101    43    45   ar
   102   107   108    1
   103   142   143    2
   104   142   141    1
   105     6     7    1
   106     9     8    2
   107    19    18    1
   108    94    95    1
   109   141   140    1
   110    75    74    1
   111    21    18    1
   112    21    22    1
   113     8     7    1
   114    11    10    1
   115    11    12    1
   116     7    10    1
   117   108   109    2
   118   108   111   am
   119   138   137    1
   120    18    17    1
   121   140   135   am
   122    95    96    1
   123   136   135    2
   124   111   112    1
   125   137   139    1
   126   137   134    1
   127   135   134    1
   128    22    23   ar
   129    22    24   ar
   130    96    98   ar
   131    96    97   ar
   132    12    13    1
   133     3     2    1
   134     3     4    2
   135     2     1    1
   136     2     5    1
   137    13    14    2
   138    15    14    1
   139   134   133    1
   140    14    16    1
   141   114   113    2
   142   112   113    1
   143   112   115    1
   144   116   115    1
   145   133   127   am
   146   115   117    1
   147   131   130   ar
   148   127   128    2
   149   127   126    1
   150   126   125    1
   151   126   129    1
   152   130   129    1
   153   130   132   ar
   154   118   119    1
   155    84    85   ar
   156    84    82   ar
   157    87    85   ar
   158    87    89   ar
   159   124   122    1
   160    85    83   ar
   161    82    81   ar
   162    89    88   ar
   163   121   120    2
   164   119   122    1
   165   119   120    1
   166   122   123    1
   167    83    81   ar
   168    83    86   ar
   169    81    80    1
   170    88    86   ar
   171    80    77    1
   172    77    78    1
   173    77    76    1
   174    78    79    2
