@<TRIPOS>MOLECULE
tmp/2zzkB00.pdb
 123 120 0 0 0
SMALL
GASTEIGER

@<TRIPOS>ATOM
      1  N        -17.9970   31.7810  -21.8120 N.3    22  ASN22      -0.1225
      2  CA       -17.2840   30.6420  -22.3810 C.3    22  ASN22       0.1785
      3  C        -17.6050   29.3600  -21.6210 C.2    22  ASN22       0.2598
      4  O        -16.8760   28.3700  -21.7010 O.2    22  ASN22      -0.2718
      5  CB       -15.7770   30.9040  -22.3780 C.3    22  ASN22       0.1169
      6  CG       -15.4080   32.2010  -23.0840 C.2    22  ASN22       0.2627
      7  OD1      -14.6670   33.0250  -22.5440 O.2    22  ASN22      -0.2716
      8  ND2      -15.9340   32.3920  -24.2930 N.am   22  ASN22      -0.0877
      9  N        -18.7110   29.3930  -20.8860 N.am   23  SER23      -0.1938
     10  CA       -19.1400   28.2590  -20.0850 C.3    23  SER23       0.2055
     11  C        -19.7170   27.1370  -20.9410 C.2    23  SER23       0.2643
     12  O        -19.9960   27.3160  -22.1250 O.2    23  SER23      -0.2714
     13  CB       -20.1800   28.7070  -19.0560 C.3    23  SER23       0.2130
     14  OG       -21.3210   29.2550  -19.6970 O.3    23  SER23      -0.2179
     15  N        -19.8900   25.9750  -20.3230 N.am   24  SER24      -0.1949
     16  CA       -20.5210   24.8370  -20.9720 C.3    24  SER24       0.1924
     17  C        -21.9240   25.2080  -21.4370 C.2    24  SER24       0.2314
     18  O        -22.4470   24.6250  -22.3840 O.2    24  SER24      -0.2863
     19  CB       -20.5830   23.6500  -20.0070 C.3    24  SER24       0.2116
     20  OG       -21.1700   24.0260  -18.7730 O.3    24  SER24      -0.2180
     21  N        -20.0170   18.3520  -27.0840 N.3    75  TYR75      -0.1241
     22  CA       -21.0990   18.8910  -26.2690 C.3    75  TYR75       0.1605
     23  C        -22.4500   18.2460  -26.5500 C.2    75  TYR75       0.2264
     24  O        -23.3370   18.2570  -25.6910 O.2    75  TYR75      -0.2867
     25  CB       -21.1570   20.4220  -26.3220 C.3    75  TYR75       0.0534
     26  CG       -20.3700   21.0500  -25.1970 C.ar   75  TYR75      -0.0201
     27  CD1      -19.0100   21.2950  -25.3250 C.ar   75  TYR75      -0.0009
     28  CD2      -20.9810   21.3560  -23.9870 C.ar   75  TYR75      -0.0009
     29  CE1      -18.2820   21.8470  -24.2850 C.ar   75  TYR75       0.0417
     30  CE2      -20.2650   21.9100  -22.9390 C.ar   75  TYR75       0.0417
     31  CZ       -18.9170   22.1550  -23.0880 C.ar   75  TYR75       0.1957
     32  OH       -18.2080   22.7110  -22.0400 O.3    75  TYR75      -0.2866
     33  N        -22.2690   15.3160  -24.3850 N.3    78  ARG78      -0.1245
     34  CA       -22.5060   15.6660  -22.9930 C.3    78  ARG78       0.1563
     35  C        -23.9860   15.8440  -22.6640 C.2    78  ARG78       0.2260
     36  O        -24.3930   15.6560  -21.5240 O.2    78  ARG78      -0.2867
     37  CB       -21.6900   16.8940  -22.5850 C.3    78  ARG78       0.0307
     38  CG       -20.2460   16.5460  -22.2490 C.3    78  ARG78       0.0489
     39  CD       -19.4850   17.7270  -21.6750 C.3    78  ARG78       0.2205
     40  NE       -20.2660   18.4700  -20.6940 N.pl3  78  ARG78      -0.0865
     41  CZ       -19.7630   19.4280  -19.9250 C.cat  78  ARG78       0.5346
     42  NH1      -20.5370   20.0660  -19.0580 N.pl3  78  ARG78       0.1354
     43  NH2      -18.4770   19.7430  -20.0240 N.pl3  78  ARG78       0.1354
     44  N        -22.3800   17.7100  -12.8790 N.3   208  GLU208     -0.1231
     45  CA       -21.8140   17.9540  -14.2070 C.3   208  GLU208      0.1699
     46  C        -20.6830   18.9720  -14.1610 C.2   208  GLU208      0.2592
     47  O        -20.9210   20.1750  -14.0580 O.2   208  GLU208     -0.2718
     48  CB       -22.9050   18.4040  -15.1900 C.3   208  GLU208      0.0402
     49  CG       -22.4800   18.4250  -16.6570 C.3   208  GLU208      0.1161
     50  CD       -23.6570   18.6120  -17.6070 C.2   208  GLU208      0.3649
     51  OE1      -24.8050   18.7270  -17.1200 O.co2 208  GLU208     -0.2457
     52  OE2      -23.4380   18.6390  -18.8420 O.co2 208  GLU208     -0.2457
     53  N        -19.4560   18.4650  -14.2370 N.am  209  VAL209     -0.1980
     54  CA       -18.2470   19.2830  -14.2340 C.3   209  VAL209      0.1595
     55  C        -18.3490   20.4640  -13.2790 C.2   209  VAL209      0.2287
     56  O        -18.2130   21.6170  -13.6910 O.2   209  VAL209     -0.2864
     57  CB       -17.9090   19.8120  -15.6450 C.3   209  VAL209      0.0276
     58  CG1      -16.4510   20.2400  -15.7150 C.3   209  VAL209      0.0022
     59  CG2      -18.1900   18.7540  -16.6870 C.3   209  VAL209      0.0022
     60  N        -14.0930   20.9840   -9.6940 N.3   213  TYR213     -0.1241
     61  CA       -13.3490   22.1600   -9.2750 C.3   213  TYR213      0.1605
     62  C        -13.0200   22.0960   -7.7910 C.2   213  TYR213      0.2264
     63  O        -12.0680   22.7220   -7.3250 O.2   213  TYR213     -0.2867
     64  CB       -14.1490   23.4310   -9.5730 C.3   213  TYR213      0.0534
     65  CG       -14.3510   23.6910  -11.0470 C.ar  213  TYR213     -0.0201
     66  CD1      -15.6120   23.6130  -11.6220 C.ar  213  TYR213     -0.0009
     67  CD2      -13.2770   24.0130  -11.8640 C.ar  213  TYR213     -0.0009
     68  CE1      -15.7970   23.8540  -12.9690 C.ar  213  TYR213      0.0417
     69  CE2      -13.4480   24.2500  -13.2060 C.ar  213  TYR213      0.0417
     70  CZ       -14.7080   24.1680  -13.7580 C.ar  213  TYR213      0.1957
     71  OH       -14.8680   24.4060  -15.1030 O.3   213  TYR213     -0.2866
     72  N         -5.2840   25.5440  -18.9630 N.3   256  HIS256     -0.1226
     73  CA        -6.4910   26.3230  -19.2240 C.3   256  HIS256      0.1752
     74  C         -7.2040   26.6960  -17.9270 C.2   256  HIS256      0.2596
     75  O         -7.3950   27.8770  -17.6250 O.2   256  HIS256     -0.2718
     76  CB        -7.4250   25.5270  -20.1430 C.3   256  HIS256      0.0759
     77  CG        -8.7950   26.1180  -20.3030 C.ar  256  HIS256      0.0818
     78  ND1       -9.1130   26.9950  -21.3170 N.ar  256  HIS256     -0.2268
     79  CD2       -9.9360   25.9280  -19.6000 C.ar  256  HIS256      0.1154
     80  CE1      -10.3870   27.3310  -21.2230 C.ar  256  HIS256      0.1986
     81  NE2      -10.9110   26.6980  -20.1910 N.ar  256  HIS256     -0.2212
     82  N         -7.5800   25.6890  -17.1500 N.am  257  PHE257     -0.1976
     83  CA        -8.3610   25.9320  -15.9410 C.3   257  PHE257      0.1639
     84  C         -7.6000   26.7140  -14.8690 C.2   257  PHE257      0.2290
     85  O         -8.1890   27.5290  -14.1700 O.2   257  PHE257     -0.2864
     86  CB        -8.9410   24.6280  -15.3980 C.3   257  PHE257      0.0560
     87  CG       -10.0020   24.0370  -16.2790 C.ar  257  PHE257     -0.0200
     88  CD1       -9.6930   23.0420  -17.1930 C.ar  257  PHE257     -0.0042
     89  CD2      -11.3070   24.4960  -16.2110 C.ar  257  PHE257     -0.0042
     90  CE1      -10.6650   22.5090  -18.0040 C.ar  257  PHE257     -0.0003
     91  CE2      -12.2850   23.9630  -17.0270 C.ar  257  PHE257     -0.0003
     92  CZ       -11.9630   22.9670  -17.9240 C.ar  257  PHE257     -0.0000
     93  N         -7.8140   30.3260  -15.9010 N.3   260  ASN260     -0.1240
     94  CA        -9.1100   30.9350  -15.6140 C.3   260  ASN260      0.1653
     95  C         -9.3690   31.0460  -14.1190 C.2   260  ASN260      0.2266
     96  O        -10.4670   31.4080  -13.6960 O.2   260  ASN260     -0.2867
     97  CB       -10.2460   30.1650  -16.2820 C.3   260  ASN260      0.1155
     98  CG       -10.4370   30.5540  -17.7450 C.2   260  ASN260      0.2627
     99  OD1       -9.4680   30.7170  -18.4930 O.2   260  ASN260     -0.2716
    100  ND2      -11.6930   30.7000  -18.1580 N.am  260  ASN260     -0.0877
    101  N        -12.8810   13.0470  -20.4720 N.3   327  TYR327     -0.1241
    102  CA       -14.1300   13.2700  -19.7560 C.3   327  TYR327      0.1605
    103  C        -14.8110   11.9380  -19.4630 C.2   327  TYR327      0.2264
    104  O        -15.0620   11.1440  -20.3730 O.2   327  TYR327     -0.2867
    105  CB       -15.0690   14.1710  -20.5540 C.3   327  TYR327      0.0534
    106  CG       -14.7570   15.6460  -20.4520 C.ar  327  TYR327     -0.0201
    107  CD1      -13.5850   16.1690  -20.9860 C.ar  327  TYR327     -0.0009
    108  CD2      -15.6460   16.5230  -19.8380 C.ar  327  TYR327     -0.0009
    109  CE1      -13.2980   17.5260  -20.8980 C.ar  327  TYR327      0.0417
    110  CE2      -15.3700   17.8760  -19.7480 C.ar  327  TYR327      0.0417
    111  CZ       -14.1950   18.3720  -20.2790 C.ar  327  TYR327      0.1957
    112  OH       -13.9210   19.7180  -20.1920 O.3   327  TYR327     -0.2866
    113  N         -8.8460   24.5420  -25.0240 N.3   663  PHE663     -0.1241
    114  CA        -8.0300   24.7530  -23.8260 C.3   663  PHE663      0.1605
    115  C         -6.6820   25.3810  -24.1660 C.2   663  PHE663      0.2264
    116  O         -5.8000   25.4820  -23.3100 O.2   663  PHE663     -0.2867
    117  CB        -7.8150   23.4400  -23.0570 C.3   663  PHE663      0.0534
    118  CG        -9.0890   22.7440  -22.6760 C.ar  663  PHE663     -0.0203
    119  CD1       -9.1970   21.3690  -22.7660 C.ar  663  PHE663     -0.0042
    120  CD2      -10.1860   23.4700  -22.2410 C.ar  663  PHE663     -0.0042
    121  CE1      -10.3730   20.7240  -22.4250 C.ar  663  PHE663     -0.0003
    122  CE2      -11.3670   22.8320  -21.8980 C.ar  663  PHE663     -0.0003
    123  CZ       -11.4600   21.4560  -21.9930 C.ar  663  PHE663     -0.0000
@<TRIPOS>BOND
     1    21    22    1
     2    23    22    1
     3    23    24    2
     4    25    22    1
     5    25    26    1
     6    27    26   ar
     7    27    29   ar
     8    26    28   ar
     9   113   114    1
    10    33    34    1
    11     8     6   am
    12    29    31   ar
    13   115   114    1
    14   115   116    2
    15    28    30   ar
    16   114   117    1
    17    31    30   ar
    18    31    32    1
    19     6     7    2
    20     6     5    1
    21   117   118    1
    22    34    35    1
    23    34    37    1
    24   119   118   ar
    25   119   121   ar
    26   118   120   ar
    27    35    36    2
    28    37    38    1
    29   121   123   ar
    30    18    17    2
    31     2     5    1
    32     2     1    1
    33     2     3    1
    34    38    39    1
    35   120   122   ar
    36    12    11    2
    37   123   122   ar
    38     4     3    2
    39    39    40    1
    40     3     9   am
    41    17    16    1
    42    78    80   ar
    43    78    77   ar
    44    80    81   ar
    45   107   109   ar
    46   107   106   ar
    47    16    15    1
    48    16    19    1
    49    11    15   am
    50    11    10    1
    51   109   111   ar
    52     9    10    1
    53    40    41    2
    54   105   106    1
    55   105   102    1
    56   101   102    1
    57   106   108   ar
    58   104   103    2
    59    77    76    1
    60    77    79   ar
    61   111   112    1
    62   111   110   ar
    63    81    79   ar
    64    76    73    1
    65    10    13    1
    66    43    41    1
    67    19    20    1
    68    41    42    1
    69   108   110   ar
    70   102   103    1
    71    14    13    1
    72    73    72    1
    73    73    74    1
    74    52    50   ar
    75    99    98    2
    76   100    98   am
    77    90    92   ar
    78    90    88   ar
    79    74    75    2
    80    74    82   am
    81    92    91   ar
    82    98    97    1
    83    50    51   ar
    84    50    49    1
    85    88    87   ar
    86    82    83    1
    87    91    89   ar
    88    59    57    1
    89    49    48    1
    90    97    94    1
    91    87    89   ar
    92    87    86    1
    93    83    86    1
    94    83    84    1
    95    93    94    1
    96    58    57    1
    97    57    54    1
    98    94    95    1
    99    48    45    1
   100    71    70    1
   101    84    85    2
   102    53    54    1
   103    53    46   am
   104    54    55    1
   105    45    46    1
   106    45    44    1
   107    46    47    2
   108    95    96    2
   109    70    69   ar
   110    70    68   ar
   111    56    55    2
   112    69    67   ar
   113    68    66   ar
   114    67    65   ar
   115    66    65   ar
   116    65    64    1
   117    60    61    1
   118    64    61    1
   119    61    62    1
   120    62    63    2
