@<TRIPOS>MOLECULE
tmp/2zzsH01.pdb
 213 204 0 0 0
SMALL
GASTEIGER

@<TRIPOS>ATOM
      1  N         55.7220  -40.0420  -37.3520 N.3     9  LYS9       -0.1245
      2  CA        55.4840  -41.4440  -37.0380 C.3     9  LYS9        0.1561
      3  C         54.1500  -41.9380  -37.6190 C.2     9  LYS9        0.2260
      4  O         53.9600  -43.1470  -37.7970 O.2     9  LYS9       -0.2867
      5  CB        55.5170  -41.6280  -35.4960 C.3     9  LYS9        0.0271
      6  CG        55.7200  -43.0490  -34.9780 C.3     9  LYS9        0.0035
      7  CD        57.0520  -43.6550  -35.4070 C.3     9  LYS9        0.0206
      8  CE        57.0880  -45.1270  -35.0270 C.3     9  LYS9        0.1093
      9  NZ        58.3650  -45.7980  -35.4110 N.3     9  LYS9       -0.1314
     10  N         52.5220  -44.5610  -41.3330 N.3    12  VAL12      -0.1231
     11  CA        51.9920  -45.8930  -41.4920 C.3    12  VAL12       0.1692
     12  C         50.5300  -45.9830  -41.0000 C.2    12  VAL12       0.2592
     13  O         49.7470  -46.7960  -41.4760 O.2    12  VAL12      -0.2718
     14  CB        52.8980  -46.8930  -40.7830 C.3    12  VAL12       0.0266
     15  CG1       52.7410  -46.7750  -39.2300 C.3    12  VAL12       0.0020
     16  CG2       52.7060  -48.3040  -41.3330 C.3    12  VAL12       0.0020
     17  N         50.1490  -45.0770  -40.1090 N.am   13  CYS13      -0.1970
     18  CA        48.8030  -45.0740  -39.5970 C.3    13  CYS13       0.1712
     19  C         47.7880  -44.5860  -40.6190 C.2    13  CYS13       0.2296
     20  O         46.6260  -44.9240  -40.5080 O.2    13  CYS13      -0.2864
     21  CB        48.6980  -44.1350  -38.3810 C.3    13  CYS13       0.0983
     22  SG        50.0510  -44.3600  -37.2320 S.3    13  CYS13      -0.0798
     23  N         47.0870  -45.1180  -43.6340 N.3    15  ALA15      -0.1231
     24  CA        46.4010  -46.0140  -44.5400 C.3    15  ALA15       0.1694
     25  C         45.0820  -46.4580  -43.9940 C.2    15  ALA15       0.2592
     26  O         44.1590  -46.8060  -44.7530 O.2    15  ALA15      -0.2718
     27  CB        47.2580  -47.2400  -44.8180 C.3    15  ALA15       0.0304
     28  N         44.9770  -46.4570  -42.6680 N.am   16  CYS16      -0.1956
     29  CA        43.7920  -46.8960  -41.9940 C.3    16  CYS16       0.1843
     30  C         43.0670  -45.7610  -41.2810 C.2    16  CYS16       0.2625
     31  O         41.8380  -45.7470  -41.2540 O.2    16  CYS16      -0.2714
     32  CB        44.1550  -47.9940  -40.9980 C.3    16  CYS16       0.0997
     33  SG        44.7160  -49.4220  -41.8890 S.3    16  CYS16      -0.0797
     34  N         43.8170  -44.7990  -40.7380 N.am   17  HIS17      -0.1973
     35  CA        43.1800  -43.7070  -39.9560 C.3    17  HIS17       0.1656
     36  C         43.0390  -42.3470  -40.7020 C.2    17  HIS17       0.2291
     37  O         42.4320  -41.4060  -40.1740 O.2    17  HIS17      -0.2864
     38  CB        43.9170  -43.5300  -38.6170 C.3    17  HIS17       0.0771
     39  CG        43.7970  -44.7190  -37.7110 C.ar   17  HIS17       0.0820
     40  ND1       42.6440  -44.9940  -37.0110 N.ar   17  HIS17      -0.2267
     41  CD2       44.6850  -45.7030  -37.3880 C.ar   17  HIS17       0.1154
     42  CE1       42.8210  -46.1010  -36.2990 C.ar   17  HIS17       0.1986
     43  NE2       44.0450  -46.5620  -36.5310 N.ar   17  HIS17      -0.2212
     44  N         33.6320  -48.6050  -40.2570 N.3    27  GLY27      -0.1210
     45  CA        34.0120  -49.4610  -39.1750 C.3    27  GLY27       0.1956
     46  C         35.3050  -49.0530  -38.4880 C.2    27  GLY27       0.2612
     47  O         35.5860  -49.5400  -37.4350 O.2    27  GLY27      -0.2717
     48  N         36.0810  -48.1810  -39.1010 N.am   28  TYR28      -0.1962
     49  CA        37.3760  -47.7400  -38.5110 C.3    28  TYR28       0.1756
     50  C         37.1680  -46.4200  -37.7660 C.2    28  TYR28       0.2461
     51  O         36.3730  -45.5490  -38.2150 O.2    28  TYR28      -0.2730
     52  CB        38.4540  -47.5560  -39.5910 C.3    28  TYR28       0.0574
     53  CG        39.0620  -48.8520  -40.1560 C.ar   28  TYR28      -0.0198
     54  CD1       38.3290  -50.0280  -40.2020 C.ar   28  TYR28      -0.0009
     55  CD2       40.3590  -48.8430  -40.6850 C.ar   28  TYR28      -0.0009
     56  CE1       38.8870  -51.1990  -40.7240 C.ar   28  TYR28       0.0417
     57  CE2       40.9240  -49.9880  -41.2350 C.ar   28  TYR28       0.0417
     58  CZ        40.1790  -51.1560  -41.2450 C.ar   28  TYR28       0.1957
     59  OH        40.7710  -52.2770  -41.8140 O.3    28  TYR28      -0.2866
     60  N         37.8530  -46.2410  -36.6260 N.am   29  PRO29      -0.2716
     61  CA        37.7270  -45.0000  -35.8080 C.3    29  PRO29       0.1536
     62  C         38.4910  -43.8010  -36.3500 C.2    29  PRO29       0.2599
     63  O         39.5960  -43.9460  -36.9070 O.2    29  PRO29      -0.2715
     64  CB        38.3540  -45.4200  -34.4780 C.3    29  PRO29       0.0310
     65  CG        39.4640  -46.4390  -34.9330 C.3    29  PRO29       0.0237
     66  CD        38.8110  -47.2110  -36.0380 C.3    29  PRO29       0.0939
     67  N         37.9150  -42.6090  -36.1800 N.am   30  ASN30      -0.1959
     68  CA        38.6200  -41.3600  -36.3700 C.3    30  ASN30       0.1819
     69  C         39.4470  -41.1510  -35.1490 C.2    30  ASN30       0.2621
     70  O         38.9650  -41.4300  -34.0380 O.2    30  ASN30      -0.2715
     71  CB        37.6190  -40.1990  -36.3640 C.3    30  ASN30       0.1195
     72  CG        36.5720  -40.3270  -37.4360 C.2    30  ASN30       0.2630
     73  OD1       35.3800  -40.0220  -37.1970 O.2    30  ASN30      -0.2716
     74  ND2       36.9940  -40.7560  -38.6200 N.am   30  ASN30      -0.0877
     75  N         40.6250  -40.5850  -35.3050 N.am   31  LEU31      -0.1977
     76  CA        41.4470  -40.2640  -34.1550 C.3    31  LEU31       0.1596
     77  C         41.5580  -38.7530  -34.0320 C.2    31  LEU31       0.2287
     78  O         42.0320  -38.2630  -33.0150 O.2    31  LEU31      -0.2864
     79  CB        42.8690  -40.7960  -34.3360 C.3    31  LEU31       0.0297
     80  CG        43.0010  -42.2800  -34.6710 C.3    31  LEU31       0.0022
     81  CD1       44.4610  -42.6670  -34.7490 C.3    31  LEU31       0.0001
     82  CD2       42.2680  -43.1560  -33.5690 C.3    31  LEU31       0.0001
     83  N         40.9790  -36.5180  -30.8130 N.3    34  GLN34      -0.1245
     84  CA        40.6150  -37.3590  -29.6790 C.3    34  GLN34       0.1566
     85  C         41.4170  -36.9420  -28.4440 C.2    34  GLN34       0.2260
     86  O         42.5220  -36.3730  -28.5590 O.2    34  GLN34      -0.2867
     87  CB        40.8500  -38.8530  -30.0160 C.3    34  GLN34       0.0367
     88  CG        40.3950  -39.8880  -28.9660 C.3    34  GLN34       0.0905
     89  CD        38.9510  -39.6930  -28.5050 C.2    34  GLN34       0.2608
     90  OE1       38.6700  -38.8530  -27.6210 O.2    34  GLN34      -0.2717
     91  NE2       38.0330  -40.4490  -29.1160 N.am   34  GLN34      -0.0878
     92  N         43.5920  -40.4290  -23.5510 N.3    38  TYR38      -0.1227
     93  CA        42.8510  -41.5980  -24.0290 C.3    38  TYR38       0.1736
     94  C         43.6060  -42.2780  -25.1820 C.2    38  TYR38       0.2595
     95  O         43.6430  -43.5070  -25.2760 O.2    38  TYR38      -0.2718
     96  CB        41.4630  -41.2080  -24.5560 C.3    38  TYR38       0.0548
     97  CG        40.7170  -42.4130  -25.1300 C.ar   38  TYR38      -0.0200
     98  CD1       40.1100  -43.3860  -24.3010 C.ar   38  TYR38      -0.0009
     99  CD2       40.6340  -42.6140  -26.5170 C.ar   38  TYR38      -0.0009
    100  CE1       39.4820  -44.5120  -24.8540 C.ar   38  TYR38       0.0417
    101  CE2       39.9570  -43.7170  -27.0730 C.ar   38  TYR38       0.0417
    102  CZ        39.3690  -44.6490  -26.2360 C.ar   38  TYR38       0.1957
    103  OH        38.7020  -45.7380  -26.7970 O.3    38  TYR38      -0.2866
    104  N         44.1490  -41.4800  -26.0950 N.am   39  ILE39      -0.1980
    105  CA        44.9400  -42.1280  -27.1680 C.3    39  ILE39       0.1595
    106  C         46.0940  -42.9360  -26.5680 C.2    39  ILE39       0.2287
    107  O         46.3450  -44.0450  -26.9560 O.2    39  ILE39      -0.2864
    108  CB        45.4520  -41.0590  -28.1750 C.3    39  ILE39       0.0276
    109  CG1       44.2410  -40.3720  -28.8800 C.3    39  ILE39       0.0022
    110  CG2       46.4660  -41.6660  -29.1570 C.3    39  ILE39       0.0022
    111  CD1       44.6940  -39.2680  -29.9120 C.3    39  ILE39       0.0001
    112  N         44.7840  -46.1010  -24.8330 N.3    42  SER42      -0.1202
    113  CA        44.2030  -47.0140  -25.7940 C.3    42  SER42       0.2020
    114  C         45.2900  -47.7560  -26.5360 C.2    42  SER42       0.2618
    115  O         45.2040  -48.9480  -26.7200 O.2    42  SER42      -0.2717
    116  CB        43.3680  -46.2340  -26.8250 C.3    42  SER42       0.2103
    117  OG        42.1250  -45.9140  -26.2360 O.3    42  SER42      -0.2182
    118  N         46.3170  -47.0570  -26.9680 N.am   43  ILE43      -0.1979
    119  CA        47.3710  -47.7630  -27.7390 C.3    43  ILE43       0.1595
    120  C         48.0960  -48.7260  -26.7950 C.2    43  ILE43       0.2287
    121  O         48.4190  -49.8640  -27.1650 O.2    43  ILE43      -0.2864
    122  CB        48.3620  -46.7460  -28.3400 C.3    43  ILE43       0.0276
    123  CG1       47.6280  -45.8920  -29.4080 C.3    43  ILE43       0.0022
    124  CG2       49.5700  -47.4890  -28.8510 C.3    43  ILE43       0.0022
    125  CD1       48.4970  -44.7230  -30.0280 C.3    43  ILE43       0.0001
    126  N         46.1660  -51.9300  -26.4720 N.3    46  TYR46      -0.1241
    127  CA        46.4090  -52.8790  -27.5680 C.3    46  TYR46       0.1605
    128  C         47.7650  -53.5570  -27.3220 C.2    46  TYR46       0.2264
    129  O         47.9010  -54.7660  -27.4940 O.2    46  TYR46      -0.2867
    130  CB        46.4260  -52.1480  -28.9370 C.3    46  TYR46       0.0534
    131  CG        45.0570  -51.6590  -29.3310 C.ar   46  TYR46      -0.0201
    132  CD1       44.0250  -52.5760  -29.6000 C.ar   46  TYR46      -0.0009
    133  CD2       44.7840  -50.2980  -29.4210 C.ar   46  TYR46      -0.0009
    134  CE1       42.7760  -52.1490  -29.9880 C.ar   46  TYR46       0.0417
    135  CE2       43.4900  -49.8440  -29.7900 C.ar   46  TYR46       0.0417
    136  CZ        42.5090  -50.7720  -30.0430 C.ar   46  TYR46       0.1957
    137  OH        41.2250  -50.3440  -30.3910 O.3    46  TYR46      -0.2866
    138  N         42.8580  -55.1220  -25.2560 N.3    51  ARG51      -0.1245
    139  CA        41.7810  -55.1340  -26.2210 C.3    51  ARG51       0.1563
    140  C         42.0900  -56.2670  -27.1890 C.2    51  ARG51       0.2260
    141  O         43.1910  -56.3250  -27.7690 O.2    51  ARG51      -0.2867
    142  CB        41.7380  -53.8130  -27.0180 C.3    51  ARG51       0.0307
    143  CG        41.5660  -52.5580  -26.1700 C.3    51  ARG51       0.0489
    144  CD        41.3760  -51.2940  -27.0090 C.3    51  ARG51       0.2205
    145  NE        40.8640  -50.2100  -26.1380 N.pl3  51  ARG51      -0.0865
    146  CZ        40.4890  -49.0120  -26.5830 C.cat  51  ARG51       0.5346
    147  NH1       40.5910  -48.7550  -27.9070 N.pl3  51  ARG51       0.1354
    148  NH2       40.0360  -48.0650  -25.7240 N.pl3  51  ARG51       0.1354
    149  N         38.8400  -56.4840  -35.1200 N.3    55  LEU55      -0.1231
    150  CA        39.7550  -55.4860  -35.5970 C.3    55  LEU55       0.1693
    151  C         40.8480  -55.1070  -34.5880 C.2    55  LEU55       0.2591
    152  O         41.8090  -54.4150  -34.9560 O.2    55  LEU55      -0.2718
    153  CB        38.9680  -54.2520  -36.0960 C.3    55  LEU55       0.0284
    154  CG        38.1570  -54.6130  -37.3510 C.3    55  LEU55       0.0019
    155  CD1       37.1270  -53.5690  -37.6010 C.3    55  LEU55       0.0001
    156  CD2       39.1120  -54.6960  -38.5070 C.3    55  LEU55       0.0001
    157  N         40.6880  -55.5200  -33.3330 N.am   56  ALA56      -0.1980
    158  CA        41.7570  -55.2800  -32.3180 C.3    56  ALA56       0.1597
    159  C         43.0660  -55.9850  -32.6550 C.2    56  ALA56       0.2287
    160  O         44.1590  -55.5130  -32.2910 O.2    56  ALA56      -0.2864
    161  CB        41.2850  -55.6700  -30.9160 C.3    56  ALA56       0.0319
    162  N         44.8760  -56.4020  -35.3410 N.3    58  VAL58      -0.1231
    163  CA        45.8870  -55.6560  -36.0990 C.3    58  VAL58       0.1692
    164  C         46.4840  -54.5420  -35.2810 C.2    58  VAL58       0.2591
    165  O         47.6680  -54.2650  -35.3920 O.2    58  VAL58      -0.2718
    166  CB        45.3740  -55.1250  -37.4720 C.3    58  VAL58       0.0266
    167  CG1       44.2450  -54.1000  -37.2710 C.3    58  VAL58       0.0020
    168  CG2       46.5820  -54.5760  -38.3420 C.3    58  VAL58       0.0020
    169  N         45.6800  -53.9140  -34.4310 N.am   59  MET59      -0.1979
    170  CA        46.2190  -52.8610  -33.5410 C.3    59  MET59       0.1605
    171  C         47.1460  -53.4000  -32.4640 C.2    59  MET59       0.2287
    172  O         48.0320  -52.6730  -32.0270 O.2    59  MET59      -0.2864
    173  CB        45.0870  -52.0430  -32.8600 C.3    59  MET59       0.0413
    174  CG        44.5550  -50.9580  -33.7740 C.3    59  MET59       0.0598
    175  SD        45.8070  -49.8210  -34.4000 S.3    59  MET59      -0.1393
    176  CE        46.6960  -49.2010  -32.9210 C.3    59  MET59       0.0692
    177  N         50.3010  -53.3670  -34.5230 N.3    62  GLN62      -0.1245
    178  CA        50.6960  -51.9600  -34.7010 C.3    62  GLN62       0.1566
    179  C         51.2070  -51.3340  -33.4130 C.2    62  GLN62       0.2260
    180  O         52.2600  -50.6740  -33.4140 O.2    62  GLN62      -0.2867
    181  CB        49.5370  -51.1190  -35.2360 C.3    62  GLN62       0.0367
    182  CG        49.2640  -51.3130  -36.7230 C.3    62  GLN62       0.0905
    183  CD        50.4690  -50.9920  -37.5920 C.2    62  GLN62       0.2608
    184  OE1       51.0000  -49.8750  -37.5460 O.2    62  GLN62      -0.2717
    185  NE2       50.9430  -51.9890  -38.3570 N.am   62  GLN62      -0.0878
    186  N         55.5110  -49.7520  -31.3990 N.3    66  LEU66      -0.1245
    187  CA        55.7330  -48.3860  -30.9210 C.3    66  LEU66       0.1561
    188  C         56.3650  -48.3620  -29.5440 C.2    66  LEU66       0.2260
    189  O         55.9320  -49.0870  -28.6390 O.2    66  LEU66      -0.2867
    190  CB        54.3840  -47.6380  -30.8280 C.3    66  LEU66       0.0270
    191  CG        53.4490  -47.6160  -32.0640 C.3    66  LEU66       0.0019
    192  CD1       52.2180  -46.8080  -31.7170 C.3    66  LEU66       0.0001
    193  CD2       54.1250  -46.9410  -33.3490 C.3    66  LEU66       0.0001
    194  N         52.5910  -39.6810  -30.9650 N.3    74  LEU74      -0.1245
    195  CA        51.4020  -39.9110  -31.8050 C.3    74  LEU74       0.1561
    196  C         50.1470  -39.3200  -31.1610 C.2    74  LEU74       0.2260
    197  O         49.3160  -38.6770  -31.8010 O.2    74  LEU74      -0.2867
    198  CB        51.2260  -41.4020  -32.0330 C.3    74  LEU74       0.0270
    199  CG        52.1820  -41.9750  -33.1370 C.3    74  LEU74       0.0019
    200  CD1       52.4590  -43.4430  -32.9330 C.3    74  LEU74       0.0001
    201  CD2       51.7240  -41.5940  -34.5780 C.3    74  LEU74       0.0001
    202  N         47.7190  -36.4910  -33.0030 N.3    78  TYR78      -0.1241
    203  CA        46.2760  -36.6000  -33.2800 C.3    78  TYR78       0.1605
    204  C         45.3920  -35.7130  -32.4080 C.2    78  TYR78       0.2264
    205  O         44.3970  -35.1720  -32.8900 O.2    78  TYR78      -0.2867
    206  CB        45.8090  -38.0550  -33.1970 C.3    78  TYR78       0.0534
    207  CG        46.3050  -38.9060  -34.3520 C.ar   78  TYR78      -0.0201
    208  CD1       45.8260  -38.6930  -35.6610 C.ar   78  TYR78      -0.0009
    209  CD2       47.2050  -39.9400  -34.1540 C.ar   78  TYR78      -0.0009
    210  CE1       46.2690  -39.4960  -36.7440 C.ar   78  TYR78       0.0417
    211  CE2       47.6370  -40.7410  -35.2390 C.ar   78  TYR78       0.0417
    212  CZ        47.1700  -40.4880  -36.5190 C.ar   78  TYR78       0.1957
    213  OH        47.5750  -41.3040  -37.5780 O.3    78  TYR78      -0.2866
@<TRIPOS>BOND
     1    27    24    1
     2    26    25    2
     3    24    25    1
     4    24    23    1
     5    25    28   am
     6    28    29    1
     7    29    30    1
     8    29    32    1
     9    33    32    1
    10    59    58    1
    11    11    10    1
    12    11    12    1
    13    11    14    1
    14    13    12    2
    15    16    14    1
    16    30    31    2
    17    30    34   am
    18    58    57   ar
    19    58    56   ar
    20    57    55   ar
    21    12    17   am
    22    14    15    1
    23    34    35    1
    24    56    54   ar
    25    36    37    2
    26    36    35    1
    27    55    53   ar
    28    19    20    2
    29    19    18    1
    30    44    45    1
    31    54    53   ar
    32    53    52    1
    33    17    18    1
    34    35    38    1
    35    18    21    1
    36    52    49    1
    37    45    46    1
    38    48    49    1
    39    48    46   am
    40    74    72   am
    41    38    39    1
    42    49    50    1
    43   156   154    1
    44    46    47    2
    45    21    22    1
    46   185   183   am
    47   168   166    1
    48    51    50    2
    49     4     3    2
    50    50    60   am
    51    39    41   ar
    52    39    40   ar
    53     3     2    1
    54   155   154    1
    55   183   184    2
    56   183   182    1
    57   213   212    1
    58   166   167    1
    59   166   163    1
    60    72    73    2
    61    72    71    1
    62    41    43   ar
    63     1     2    1
    64   154   153    1
    65     2     5    1
    66    40    42   ar
    67    63    62    2
    68   210   212   ar
    69   210   208   ar
    70   182   181    1
    71    60    66    1
    72    60    61    1
    73    43    42   ar
    74   212   211   ar
    75    68    71    1
    76    68    67    1
    77    68    69    1
    78    62    67   am
    79    62    61    1
    80   163   162    1
    81   163   164    1
    82   153   150    1
    83    66    65    1
    84    61    64    1
    85   208   207   ar
    86   150   149    1
    87   150   151    1
    88     5     6    1
    89     9     8    1
    90     7     8    1
    91     7     6    1
    92   165   164    2
    93    75    69   am
    94    75    76    1
    95   164   169   am
    96   211   209   ar
    97   181   178    1
    98    69    70    2
    99   152   151    2
   100    65    64    1
   101    81    80    1
   102   178   177    1
   103   178   179    1
   104    80    79    1
   105    80    82    1
   106   151   157   am
   107   201   199    1
   108   169   170    1
   109   175   174    1
   110   175   176    1
   111   207   209   ar
   112   207   206    1
   113    79    76    1
   114    76    77    1
   115    77    78    2
   116   174   173    1
   117   170   173    1
   118   170   171    1
   119   180   179    2
   120   193   191    1
   121   157   158    1
   122   203   206    1
   123   203   202    1
   124   203   204    1
   125   199   200    1
   126   199   198    1
   127   205   204    2
   128   159   158    1
   129   159   160    2
   130   171   172    2
   131   158   161    1
   132   191   192    1
   133   191   190    1
   134   198   195    1
   135   195   196    1
   136   195   194    1
   137   197   196    2
   138   186   187    1
   139   187   190    1
   140   187   188    1
   141    83    84    1
   142   137   136    1
   143   136   134   ar
   144   136   135   ar
   145   125   123    1
   146    87    84    1
   147    87    88    1
   148   134   132   ar
   149   111   109    1
   150   135   133   ar
   151    84    85    1
   152   132   131   ar
   153   188   189    2
   154   133   131   ar
   155   123   122    1
   156   131   130    1
   157   110   108    1
   158    91    89   am
   159    88    89    1
   160   130   127    1
   161   109   108    1
   162   124   122    1
   163    86    85    2
   164    89    90    2
   165   122   119    1
   166   108   105    1
   167   147   146    1
   168   141   140    2
   169   119   118    1
   170   119   120    1
   171   127   128    1
   172   127   126    1
   173   129   128    2
   174   140   139    1
   175   105   106    1
   176   105   104    1
   177   121   120    2
   178   101    99   ar
   179   101   102   ar
   180   142   139    1
   181   142   143    1
   182   144   143    1
   183   144   145    1
   184   118   114   am
   185   107   106    2
   186   116   117    1
   187   116   113    1
   188   103   102    1
   189   115   114    2
   190   146   145    2
   191   146   148    1
   192   114   113    1
   193    99    97   ar
   194   102   100   ar
   195   139   138    1
   196   104    94   am
   197   113   112    1
   198    95    94    2
   199    94    93    1
   200    97    96    1
   201    97    98   ar
   202   100    98   ar
   203    96    93    1
   204    93    92    1
