@<TRIPOS>MOLECULE
tmp/35c8A00.pdb
 112 110 0 0 0
SMALL
GASTEIGER

@<TRIPOS>ATOM
      1  N         33.5040  -20.3020    3.3850 N.3    35  HIS35      -0.1241
      2  CA        34.7040  -19.7890    2.7480 C.3    35  HIS35       0.1621
      3  C         35.6630  -19.0620    3.6840 C.2    35  HIS35       0.2264
      4  O         35.3120  -18.7100    4.7960 O.2    35  HIS35      -0.2867
      5  CB        34.2910  -18.8420    1.5980 C.3    35  HIS35       0.0745
      6  CG        33.1260  -19.3320    0.7870 C.ar   35  HIS35       0.0817
      7  ND1       33.2460  -20.3180   -0.1720 N.ar   35  HIS35      -0.2268
      8  CD2       31.8160  -18.9800    0.8040 C.ar   35  HIS35       0.1154
      9  CE1       32.0600  -20.5530   -0.7090 C.ar   35  HIS35       0.1986
     10  NE2       31.1760  -19.7530   -0.1360 N.ar   35  HIS35      -0.2212
     11  N         38.7150  -15.8430    3.7620 N.3    37  TYR37      -0.1241
     12  CA        39.2980  -14.6970    3.0510 C.3    37  TYR37       0.1605
     13  C         40.5670  -14.2830    3.7570 C.2    37  TYR37       0.2264
     14  O         40.7020  -14.4600    4.9710 O.2    37  TYR37      -0.2867
     15  CB        38.3430  -13.4770    3.0370 C.3    37  TYR37       0.0534
     16  CG        37.1360  -13.6450    2.1470 C.ar   37  TYR37      -0.0201
     17  CD1       35.9870  -14.3070    2.6130 C.ar   37  TYR37      -0.0009
     18  CD2       37.1610  -13.2200    0.8210 C.ar   37  TYR37      -0.0009
     19  CE1       34.9010  -14.5460    1.7740 C.ar   37  TYR37       0.0417
     20  CE2       36.0790  -13.4570   -0.0270 C.ar   37  TYR37       0.0417
     21  CZ        34.9570  -14.1230    0.4570 C.ar   37  TYR37       0.1957
     22  OH        33.9060  -14.3910   -0.3800 O.3    37  TYR37      -0.2866
     23  N         39.5690  -13.7760   -1.6030 N.3    47  LEU47      -0.1245
     24  CA        39.1440  -15.1650   -1.4220 C.3    47  LEU47       0.1561
     25  C         40.3870  -16.0340   -1.3500 C.2    47  LEU47       0.2260
     26  O         41.2550  -15.9550   -2.2160 O.2    47  LEU47      -0.2867
     27  CB        38.2420  -15.6130   -2.5830 C.3    47  LEU47       0.0270
     28  CG        37.6560  -17.0180   -2.4600 C.3    47  LEU47       0.0019
     29  CD1       36.6210  -17.0810   -1.3730 C.3    47  LEU47       0.0001
     30  CD2       37.0770  -17.3940   -3.7880 C.3    47  LEU47       0.0001
     31  N         37.7260  -21.6020   -0.9770 N.3    50  TYR50      -0.1227
     32  CA        36.2900  -21.6160   -1.2060 C.3    50  TYR50       0.1736
     33  C         35.7410  -22.9970   -0.9250 C.2    50  TYR50       0.2596
     34  O         36.4620  -23.9990   -1.0240 O.2    50  TYR50      -0.2718
     35  CB        35.9260  -21.1770   -2.6450 C.3    50  TYR50       0.0548
     36  CG        36.4400  -22.0480   -3.7710 C.ar   50  TYR50      -0.0200
     37  CD1       37.7530  -21.9120   -4.2420 C.ar   50  TYR50      -0.0009
     38  CD2       35.6270  -23.0210   -4.3590 C.ar   50  TYR50      -0.0009
     39  CE1       38.2530  -22.7330   -5.2690 C.ar   50  TYR50       0.0417
     40  CE2       36.1080  -23.8490   -5.3870 C.ar   50  TYR50       0.0417
     41  CZ        37.4210  -23.7040   -5.8320 C.ar   50  TYR50       0.1957
     42  OH        37.9100  -24.5420   -6.8130 O.3    50  TYR50      -0.2866
     43  N         34.4710  -23.0410   -0.5410 N.am   51  SER51      -0.1952
     44  CA        33.8100  -24.2990   -0.2630 C.3    51  SER51       0.1924
     45  C         34.6120  -25.2120    0.6520 C.2    51  SER51       0.2314
     46  O         34.8340  -26.3860    0.3250 O.2    51  SER51      -0.2863
     47  CB        33.5340  -25.0210   -1.5810 C.3    51  SER51       0.2116
     48  OG        32.5460  -24.3260   -2.2930 O.3    51  SER51      -0.2180
     49  N         41.4650  -24.3220   -2.8520 N.3    55  LEU55      -0.1231
     50  CA        42.2730  -23.1210   -2.8730 C.3    55  LEU55       0.1693
     51  C         41.8420  -22.1920   -3.9970 C.2    55  LEU55       0.2592
     52  O         41.5450  -22.6340   -5.1080 O.2    55  LEU55      -0.2718
     53  CB        43.7460  -23.5010   -3.0480 C.3    55  LEU55       0.0284
     54  CG        44.3390  -24.4330   -1.9970 C.3    55  LEU55       0.0019
     55  CD1       45.8320  -24.6350   -2.2920 C.3    55  LEU55       0.0001
     56  CD2       44.1220  -23.8440   -0.5910 C.3    55  LEU55       0.0001
     57  N         41.8010  -20.9020   -3.7020 N.am   56  ALA56      -0.1966
     58  CA        41.4280  -19.9150   -4.7080 C.3    56  ALA56       0.1728
     59  C         42.6070  -19.7050   -5.6760 C.2    56  ALA56       0.2616
     60  O         43.7510  -20.1010   -5.3860 O.2    56  ALA56      -0.2715
     61  CB        41.0380  -18.6020   -4.0290 C.3    56  ALA56       0.0334
     62  N         42.3430  -19.0830   -6.8230 N.am   57  SER57      -0.1950
     63  CA        43.4000  -18.8610   -7.8190 C.3    57  SER57       0.1924
     64  C         44.6410  -18.1990   -7.2180 C.2    57  SER57       0.2314
     65  O         44.5350  -17.2150   -6.4860 O.2    57  SER57      -0.2863
     66  CB        42.8700  -18.0150   -8.9850 C.3    57  SER57       0.2116
     67  OG        42.5200  -16.7100   -8.5540 O.3    57  SER57      -0.2180
     68  N         33.8030  -17.2840    6.2950 N.3    90  HIS90      -0.1241
     69  CA        32.5640  -16.6350    5.8990 C.3    90  HIS90       0.1621
     70  C         31.5720  -17.7070    5.5270 C.2    90  HIS90       0.2264
     71  O         31.9600  -18.6930    4.9020 O.2    90  HIS90      -0.2867
     72  CB        32.8830  -15.7450    4.6860 C.3    90  HIS90       0.0745
     73  CG        31.6930  -15.3230    3.8930 C.ar   90  HIS90       0.0817
     74  ND1       30.6240  -14.6570    4.4530 N.ar   90  HIS90      -0.2268
     75  CD2       31.4180  -15.4370    2.5720 C.ar   90  HIS90       0.1154
     76  CE1       29.7400  -14.3800    3.5110 C.ar   90  HIS90       0.1986
     77  NE2       30.1970  -14.8430    2.3610 N.ar   90  HIS90      -0.2212
     78  N         28.1120  -18.3330    3.4740 N.3    92  TYR92      -0.1241
     79  CA        27.1910  -17.8100    2.4810 C.3    92  TYR92       0.1605
     80  C         26.1110  -18.8850    2.3680 C.2    92  TYR92       0.2264
     81  O         25.6530  -19.2110    1.2730 O.2    92  TYR92      -0.2867
     82  CB        27.9180  -17.6360    1.1490 C.3    92  TYR92       0.0534
     83  CG        27.1550  -16.8470    0.0910 C.ar   92  TYR92      -0.0201
     84  CD1       26.3300  -15.7660    0.4370 C.ar   92  TYR92      -0.0009
     85  CD2       27.2420  -17.2010   -1.2510 C.ar   92  TYR92      -0.0009
     86  CE1       25.6090  -15.0630   -0.5410 C.ar   92  TYR92       0.0417
     87  CE2       26.5290  -16.5070   -2.2380 C.ar   92  TYR92       0.0417
     88  CZ        25.7180  -15.4470   -1.8770 C.ar   92  TYR92       0.1957
     89  OH        25.0190  -14.7920   -2.8570 O.3    92  TYR92      -0.2866
     90  N         24.1350  -13.3270    5.8860 N.3    97  TYR97      -0.1241
     91  CA        25.4360  -13.9520    5.7080 C.3    97  TYR97       0.1605
     92  C         26.3710  -13.3150    6.7050 C.2    97  TYR97       0.2264
     93  O         26.3060  -12.1030    6.9530 O.2    97  TYR97      -0.2867
     94  CB        25.9300  -13.7560    4.2900 C.3    97  TYR97       0.0534
     95  CG        24.8940  -14.1920    3.3000 C.ar   97  TYR97      -0.0201
     96  CD1       24.3580  -15.4710    3.3480 C.ar   97  TYR97      -0.0009
     97  CD2       24.3810  -13.2990    2.3710 C.ar   97  TYR97      -0.0009
     98  CE1       23.3280  -15.8480    2.4970 C.ar   97  TYR97       0.0417
     99  CE2       23.3580  -13.6610    1.5210 C.ar   97  TYR97       0.0417
    100  CZ        22.8340  -14.9320    1.5860 C.ar   97  TYR97       0.1957
    101  OH        21.8200  -15.2720    0.7350 O.3    97  TYR97      -0.2866
    102  N         30.4600  -13.3270    8.8790 N.3    99  PHE99      -0.1241
    103  CA        31.9100  -13.5440    8.8700 C.3    99  PHE99       0.1605
    104  C         32.3400  -13.8060   10.3100 C.2    99  PHE99       0.2264
    105  O         31.6920  -13.3470   11.2600 O.2    99  PHE99      -0.2867
    106  CB        32.6750  -12.3100    8.3610 C.3    99  PHE99       0.0534
    107  CG        32.4540  -12.0030    6.9070 C.ar   99  PHE99      -0.0203
    108  CD1       31.3510  -11.2500    6.4990 C.ar   99  PHE99      -0.0042
    109  CD2       33.3320  -12.4630    5.9430 C.ar   99  PHE99      -0.0042
    110  CE1       31.1360  -10.9670    5.1390 C.ar   99  PHE99      -0.0003
    111  CE2       33.1210  -12.1840    4.5840 C.ar   99  PHE99      -0.0003
    112  CZ        32.0230  -11.4380    4.1900 C.ar   99  PHE99      -0.0000
@<TRIPOS>BOND
     1    66    67    1
     2    66    63    1
     3    63    64    1
     4    63    62    1
     5    64    65    2
     6    62    59   am
     7    42    41    1
     8    41    40   ar
     9    41    39   ar
    10    59    60    2
    11    59    58    1
    12    40    38   ar
    13    39    37   ar
    14    52    51    2
    15    58    61    1
    16    58    57    1
    17    38    36   ar
    18    37    36   ar
    19    51    57   am
    20    51    50    1
    21    30    28    1
    22    36    35    1
    23    53    50    1
    24    53    54    1
    25    50    49    1
    26    89    88    1
    27    35    32    1
    28    27    28    1
    29    27    24    1
    30    28    29    1
    31    48    47    1
    32    55    54    1
    33    87    88   ar
    34    87    85   ar
    35    26    25    2
    36    54    56    1
    37    88    86   ar
    38    23    24    1
    39    47    44    1
    40    24    25    1
    41    85    83   ar
    42    32    31    1
    43    32    33    1
    44    34    33    2
    45    33    43   am
    46     9     7   ar
    47     9    10   ar
    48    43    44    1
    49    86    84   ar
    50    22    21    1
    51    44    45    1
    52     7     6   ar
    53    10     8   ar
    54    20    21   ar
    55    20    18   ar
    56    83    84   ar
    57    83    82    1
    58    46    45    2
    59    21    19   ar
    60   101   100    1
    61     6     8   ar
    62     6     5    1
    63    18    16   ar
    64    82    79    1
    65    81    80    2
    66    99   100   ar
    67    99    97   ar
    68   100    98   ar
    69     5     2    1
    70    19    17   ar
    71    16    17   ar
    72    16    15    1
    73    77    75   ar
    74    77    76   ar
    75    80    79    1
    76    97    95   ar
    77    79    78    1
    78    98    96   ar
    79    75    73   ar
    80     2     1    1
    81     2     3    1
    82    15    12    1
    83    12    13    1
    84    12    11    1
    85    95    96   ar
    86    95    94    1
    87    76    74   ar
    88     3     4    2
    89    13    14    2
    90    73    74   ar
    91    73    72    1
    92   112   111   ar
    93   112   110   ar
    94    94    91    1
    95   111   109   ar
    96    72    69    1
    97    71    70    2
    98   110   108   ar
    99    70    69    1
   100    91    90    1
   101    91    92    1
   102    69    68    1
   103   109   107   ar
   104   108   107   ar
   105    92    93    2
   106   107   106    1
   107   106   103    1
   108   103   102    1
   109   103   104    1
   110   104   105    2
