@<TRIPOS>MOLECULE
tmp/3a05A00.pdb
 137 127 0 0 0
SMALL
GASTEIGER

@<TRIPOS>ATOM
      1  N        -40.2810  -23.7090   -5.5760 N.3    69  LEU69      -0.1231
      2  CA       -40.1300  -23.5410   -7.0100 C.3    69  LEU69       0.1693
      3  C        -39.3420  -22.2650   -7.2280 C.2    69  LEU69       0.2593
      4  O        -39.5420  -21.3110   -6.4650 O.2    69  LEU69      -0.2718
      5  CB       -41.5340  -23.4060   -7.7010 C.3    69  LEU69       0.0284
      6  CG       -41.4090  -23.3060   -9.2430 C.3    69  LEU69       0.0019
      7  CD1      -42.3530  -24.1640  -10.0200 C.3    69  LEU69       0.0001
      8  CD2      -41.5130  -21.8500   -9.6550 C.3    69  LEU69       0.0001
      9  N        -38.4310  -22.2390   -8.2260 N.am   70  THR70      -0.1939
     10  CA       -37.8440  -20.9710   -8.6470 C.3    70  THR70       0.2028
     11  C        -37.5350  -21.1840  -10.1380 C.2    70  THR70       0.2643
     12  O        -37.6850  -22.2860  -10.6670 O.2    70  THR70      -0.2714
     13  CB       -36.5160  -20.6170   -7.8320 C.3    70  THR70       0.1808
     14  OG1      -36.0230  -19.3410   -8.2720 O.3    70  THR70      -0.2208
     15  CG2      -35.4330  -21.6460   -8.1190 C.3    70  THR70       0.0379
     16  N        -37.1230  -20.1650  -10.8770 N.am   71  GLY71      -0.1939
     17  CA       -36.6380  -20.4980  -12.1960 C.3    71  GLY71       0.2014
     18  C        -35.3420  -19.7600  -12.5050 C.2    71  GLY71       0.2639
     19  O        -34.9690  -18.7920  -11.7830 O.2    71  GLY71      -0.2714
     20  N        -34.6960  -20.1460  -13.6110 N.am   72  PHE72      -0.1959
     21  CA       -33.4190  -19.4750  -14.0080 C.3    72  PHE72       0.1771
     22  C        -33.4520  -19.0960  -15.4770 C.2    72  PHE72       0.2619
     23  O        -33.8900  -19.8830  -16.3180 O.2    72  PHE72      -0.2715
     24  CB       -32.2290  -20.4300  -13.7950 C.3    72  PHE72       0.0574
     25  CG       -32.0010  -20.7950  -12.3780 C.ar   72  PHE72      -0.0200
     26  CD1      -32.6830  -21.8470  -11.8050 C.ar   72  PHE72      -0.0042
     27  CD2      -31.1370  -20.0250  -11.5790 C.ar   72  PHE72      -0.0042
     28  CE1      -32.5250  -22.1550  -10.4720 C.ar   72  PHE72      -0.0003
     29  CE2      -30.9540  -20.3290  -10.1970 C.ar   72  PHE72      -0.0003
     30  CZ       -31.6160  -21.3970   -9.6520 C.ar   72  PHE72      -0.0000
     31  N        -32.9870  -17.8930  -15.7680 N.am   73  MET73      -0.1977
     32  CA       -32.6450  -17.4010  -17.0930 C.3    73  MET73       0.1605
     33  C        -31.3860  -18.1190  -17.6370 C.2    73  MET73       0.2287
     34  O        -30.3140  -17.9100  -17.0450 O.2    73  MET73      -0.2864
     35  CB       -32.3530  -15.8920  -16.9590 C.3    73  MET73       0.0413
     36  CG       -31.9610  -15.1890  -18.2800 C.3    73  MET73       0.0598
     37  SD       -33.1320  -15.5960  -19.6480 S.3    73  MET73      -0.1393
     38  CE       -34.5320  -14.7100  -19.0170 C.3    73  MET73       0.0692
     39  N        -37.6790  -24.1170  -12.8850 N.3   102  ALA102     -0.1245
     40  CA       -38.0050  -23.7710  -14.2410 C.3   102  ALA102      0.1562
     41  C        -36.7830  -23.1910  -14.9940 C.2   102  ALA102      0.2260
     42  O        -36.0490  -22.3620  -14.4550 O.2   102  ALA102     -0.2867
     43  CB       -39.1640  -22.7280  -14.3000 C.3   102  ALA102      0.0290
     44  N        -36.1650  -20.7600  -17.9520 N.3   104  ALA104     -0.1245
     45  CA       -36.8640  -19.6960  -18.6580 C.3   104  ALA104      0.1562
     46  C        -36.4330  -19.5010  -20.0390 C.2   104  ALA104      0.2260
     47  O        -36.1750  -18.3890  -20.4030 O.2   104  ALA104     -0.2867
     48  CB       -36.7650  -18.3670  -17.8930 C.3   104  ALA104      0.0290
     49  N        -38.6190  -17.0120  -22.2060 N.3   107  GLU107     -0.1245
     50  CA       -38.2000  -15.6240  -21.9600 C.3   107  GLU107      0.1567
     51  C        -36.7960  -15.3090  -22.5510 C.2   107  GLU107      0.2260
     52  O        -36.5780  -14.2260  -23.0990 O.2   107  GLU107     -0.2867
     53  CB       -38.1940  -15.3270  -20.4920 C.3   107  GLU107      0.0388
     54  CG       -37.9810  -13.8470  -20.2190 C.3   107  GLU107      0.1160
     55  CD       -37.8400  -13.5730  -18.7400 C.2   107  GLU107      0.3649
     56  OE1      -38.1210  -14.4760  -17.8970 O.co2 107  GLU107     -0.2457
     57  OE2      -37.4940  -12.4240  -18.4320 O.co2 107  GLU107     -0.2457
     58  N        -34.7560  -11.8300  -24.3350 N.3   112  ARG112     -0.1245
     59  CA       -33.2830  -11.5930  -24.3940 C.3   112  ARG112      0.1563
     60  C        -32.6640  -11.9350  -25.7130 C.2   112  ARG112      0.2260
     61  O        -31.4520  -11.8190  -25.8490 O.2   112  ARG112     -0.2867
     62  CB       -32.5150  -12.4000  -23.3480 C.3   112  ARG112      0.0307
     63  CG       -32.9510  -12.2670  -21.9180 C.3   112  ARG112      0.0489
     64  CD       -32.6020  -10.9640  -21.2990 C.3   112  ARG112      0.2205
     65  NE       -32.8790  -10.9880  -19.8580 N.pl3 112  ARG112     -0.0865
     66  CZ       -32.0110  -11.3550  -18.9120 C.cat 112  ARG112      0.5346
     67  NH1      -30.7670  -11.7640  -19.2300 N.pl3 112  ARG112      0.1354
     68  NH2      -32.3970  -11.3050  -17.6390 N.pl3 112  ARG112      0.1354
     69  N        -39.7840  -23.8780  -20.0320 N.3   146  GLN146     -0.1245
     70  CA       -41.0040  -23.0950  -20.2480 C.3   146  GLN146      0.1566
     71  C        -41.6480  -23.5630  -21.5710 C.2   146  GLN146      0.2260
     72  O        -42.8780  -23.6800  -21.6680 O.2   146  GLN146     -0.2867
     73  CB       -40.7140  -21.6180  -20.3260 C.3   146  GLN146      0.0367
     74  CG       -40.4820  -20.9890  -18.9270 C.3   146  GLN146      0.0905
     75  CD       -40.1760  -19.5050  -18.9840 C.2   146  GLN146      0.2608
     76  OE1      -39.7260  -18.9950  -19.9820 O.2   146  GLN146     -0.2717
     77  NE2      -40.3930  -18.8210  -17.8920 N.am  146  GLN146     -0.0878
     78  N        -43.0010   -3.5330  -14.9390 N.3   173  TYR173     -0.1241
     79  CA       -42.0410   -3.7760  -15.9920 C.3   173  TYR173      0.1605
     80  C        -41.6500   -2.5110  -16.7370 C.2   173  TYR173      0.2264
     81  O        -40.6020   -2.4730  -17.3790 O.2   173  TYR173     -0.2867
     82  CB       -42.6430   -4.7690  -16.9820 C.3   173  TYR173      0.0534
     83  CG       -42.3270   -6.2230  -16.6870 C.ar  173  TYR173     -0.0201
     84  CD1      -43.0010   -6.9230  -15.6870 C.ar  173  TYR173     -0.0009
     85  CD2      -41.3700   -6.9070  -17.4410 C.ar  173  TYR173     -0.0009
     86  CE1      -42.7140   -8.2670  -15.4240 C.ar  173  TYR173      0.0417
     87  CE2      -41.0790   -8.2550  -17.2080 C.ar  173  TYR173      0.0417
     88  CZ       -41.7500   -8.9330  -16.1940 C.ar  173  TYR173      0.1957
     89  OH       -41.4470  -10.2700  -15.9540 O.3   173  TYR173     -0.2866
     90  N        -44.3030  -16.6510  -16.1530 N.3   187  GLN187     -0.1245
     91  CA       -43.6850  -16.7790  -14.8380 C.3   187  GLN187      0.1566
     92  C        -44.7270  -17.0040  -13.7730 C.2   187  GLN187      0.2260
     93  O        -44.5100  -17.7430  -12.8500 O.2   187  GLN187     -0.2867
     94  CB       -42.8310  -15.5480  -14.5030 C.3   187  GLN187      0.0367
     95  CG       -42.2200  -15.6330  -13.0630 C.3   187  GLN187      0.0905
     96  CD       -41.1430  -14.5320  -12.7590 C.2   187  GLN187      0.2608
     97  OE1      -40.6420  -13.8680  -13.6550 O.2   187  GLN187     -0.2717
     98  NE2      -40.7790  -14.3930  -11.5090 N.am  187  GLN187     -0.0878
     99  N        -45.4340  -20.4840  -14.1900 N.3   190  ASP190     -0.1225
    100  CA       -44.3700  -21.3780  -13.6000 C.3   190  ASP190      0.1805
    101  C        -44.7140  -21.6000  -12.1340 C.2   190  ASP190      0.2597
    102  O        -44.6840  -22.7150  -11.6280 O.2   190  ASP190     -0.2718
    103  CB       -42.9880  -20.6970  -13.6820 C.3   190  ASP190      0.1424
    104  CG       -42.4430  -20.6640  -15.0680 C.2   190  ASP190      0.3668
    105  OD1      -42.6450  -21.6280  -15.8300 O.co2 190  ASP190     -0.2456
    106  OD2      -41.8090  -19.6510  -15.4170 O.co2 190  ASP190     -0.2456
    107  N        -45.0000  -20.5260  -11.4250 N.am  191  ILE191     -0.1980
    108  CA       -45.2760  -20.6280   -9.9790 C.3   191  ILE191      0.1595
    109  C        -46.5650  -21.3930   -9.6190 C.2   191  ILE191      0.2287
    110  O        -46.6110  -22.2730   -8.7440 O.2   191  ILE191     -0.2864
    111  CB       -45.3420  -19.2200   -9.4240 C.3   191  ILE191      0.0276
    112  CG1      -43.9380  -18.6180   -9.4820 C.3   191  ILE191      0.0022
    113  CG2      -45.8010  -19.2220   -7.9690 C.3   191  ILE191      0.0022
    114  CD1      -43.9080  -17.0240   -9.2920 C.3   191  ILE191      0.0001
    115  N        -41.7110  -19.6290   -2.9110 N.3   207  VAL207     -0.1245
    116  CA       -40.7770  -19.1020   -3.8930 C.3   207  VAL207      0.1561
    117  C        -39.7450  -18.2220   -3.1590 C.2   207  VAL207      0.2260
    118  O        -40.0890  -17.2660   -2.5000 O.2   207  VAL207     -0.2867
    119  CB       -41.4650  -18.2290   -4.9500 C.3   207  VAL207      0.0252
    120  CG1      -40.4560  -17.7960   -6.0870 C.3   207  VAL207      0.0019
    121  CG2      -42.7020  -18.9920   -5.5800 C.3   207  VAL207      0.0019
    122  N        -37.0480  -15.5050   -3.0800 N.3   209  VAL209     -0.1245
    123  CA       -36.7140  -14.3870   -3.9290 C.3   209  VAL209      0.1561
    124  C        -36.0060  -13.2620   -3.1470 C.2   209  VAL209      0.2260
    125  O        -35.8880  -13.3270   -1.9180 O.2   209  VAL209     -0.2867
    126  CB       -38.0240  -13.7030   -4.4920 C.3   209  VAL209      0.0252
    127  CG1      -38.8420  -14.6670   -5.3030 C.3   209  VAL209      0.0019
    128  CG2      -38.8280  -13.1060   -3.3520 C.3   209  VAL209      0.0019
    129  N        -38.0540   -8.5760   -6.2090 N.3   213  GLN213     -0.1245
    130  CA       -38.8640   -9.4340   -7.0740 C.3   213  GLN213      0.1566
    131  C        -40.3100   -9.5360   -6.5720 C.2   213  GLN213      0.2260
    132  O        -41.1040  -10.2580   -7.1850 O.2   213  GLN213     -0.2867
    133  CB       -38.2830  -10.8540   -7.1530 C.3   213  GLN213      0.0367
    134  CG       -36.9230  -11.0680   -7.8650 C.3   213  GLN213      0.0905
    135  CD       -36.3450  -12.4830   -7.5590 C.2   213  GLN213      0.2608
    136  OE1      -35.4480  -12.6390   -6.7080 O.2   213  GLN213     -0.2717
    137  NE2      -36.9050  -13.5450   -8.2410 N.am  213  GLN213     -0.0878
@<TRIPOS>BOND
     1    61    60    2
     2    60    59    1
     3    59    58    1
     4    59    62    1
     5    62    63    1
     6    52    51    2
     7    51    50    1
     8    49    50    1
     9    50    53    1
    10    63    64    1
    11    72    71    2
    12    71    70    1
    13    64    65    1
    14    53    54    1
    15    47    46    2
    16    73    70    1
    17    73    74    1
    18    70    69    1
    19    54    55    1
    20    46    45    1
    21    76    75    2
    22    65    66    2
    23    37    38    1
    24    37    36    1
    25    67    66    1
    26    75    74    1
    27    75    77   am
    28    66    68    1
    29    55    57   ar
    30    55    56   ar
    31    45    44    1
    32    45    48    1
    33    36    35    1
    34    33    32    1
    35    33    34    2
    36    85    87   ar
    37    85    83   ar
    38    81    80    2
    39    87    88   ar
    40    32    35    1
    41    32    31    1
    42    82    83    1
    43    82    79    1
    44    80    79    1
    45    83    84   ar
    46    23    22    2
    47    88    89    1
    48    88    86   ar
    49    90    91    1
    50    79    78    1
    51   105   104   ar
    52    31    22   am
    53    84    86   ar
    54    22    21    1
    55   106   104   ar
    56   104   103    1
    57    41    42    2
    58    41    40    1
    59    91    94    1
    60    91    92    1
    61    94    95    1
    62    43    40    1
    63    40    39    1
    64    99   100    1
    65    21    24    1
    66    21    20    1
    67    24    25    1
    68    92    93    2
    69   103   100    1
    70    97    96    2
    71    20    18   am
    72   100   101    1
    73    95    96    1
    74    96    98   am
    75    18    17    1
    76    18    19    2
    77    25    26   ar
    78    25    27   ar
    79    17    16    1
    80   101   102    2
    81   101   107   am
    82    26    28   ar
    83    27    29   ar
    84   107   108    1
    85    16    11   am
    86    12    11    2
    87    28    30   ar
    88    29    30   ar
    89    11    10    1
    90     7     6    1
    91   108   109    1
    92   108   111    1
    93     8     6    1
    94   109   110    2
    95   112   111    1
    96   112   114    1
    97   111   113    1
    98     6     5    1
    99    10     9    1
   100    10    13    1
   101    14    13    1
   102   137   135   am
   103     9     3   am
   104    15    13    1
   105   134   135    1
   106   134   133    1
   107     5     2    1
   108   135   136    2
   109     3     2    1
   110     3     4    2
   111   132   131    2
   112   133   130    1
   113   130   131    1
   114   130   129    1
   115     2     1    1
   116   120   119    1
   117   121   119    1
   118   127   126    1
   119   119   116    1
   120   126   123    1
   121   126   128    1
   122   123   124    1
   123   123   122    1
   124   116   117    1
   125   116   115    1
   126   117   118    2
   127   124   125    2
