@<TRIPOS>MOLECULE
tmp/3a06A01.pdb
 90 86 0 0 0
SMALL
GASTEIGER

@<TRIPOS>ATOM
      1  N         27.0870   44.5010   26.2700 N.3     1  GLU1       -0.1245
      2  CA        26.1350   43.3580   26.0440 C.3     1  GLU1        0.1567
      3  C         24.7790   43.8800   25.5490 C.2     1  GLU1        0.2260
      4  O         24.3790   44.9890   25.8940 O.2     1  GLU1       -0.2867
      5  CB        25.9360   42.5570   27.3370 C.3     1  GLU1        0.0388
      6  CG        27.0330   41.5250   27.6200 C.3     1  GLU1        0.1160
      7  CD        26.8310   40.7840   28.9390 C.2     1  GLU1        0.3649
      8  OE1       27.2170   39.5920   29.0270 O.co2   1  GLU1       -0.2457
      9  OE2       26.2770   41.3860   29.8920 O.co2   1  GLU1       -0.2457
     10  N         22.1930   30.8140   25.3310 N.3    21  LEU21      -0.1231
     11  CA        22.8530   31.8460   26.1620 C.3    21  LEU21       0.1693
     12  C         24.0240   31.3050   26.9780 C.2    21  LEU21       0.2591
     13  O         24.9900   32.0250   27.2230 O.2    21  LEU21      -0.2718
     14  CB        21.8670   32.5070   27.1160 C.3    21  LEU21       0.0284
     15  CG        20.7630   33.3400   26.4770 C.3    21  LEU21       0.0019
     16  CD1       19.7810   33.8310   27.5440 C.3    21  LEU21       0.0001
     17  CD2       21.3480   34.5050   25.6930 C.3    21  LEU21       0.0001
     18  N         23.9340   30.0430   27.3820 N.am   22  LYS22      -0.1980
     19  CA        25.0460   29.3720   28.0470 C.3    22  LYS22       0.1596
     20  C         26.2120   29.0920   27.1180 C.2    22  LYS22       0.2287
     21  O         27.3490   28.9910   27.5770 O.2    22  LYS22      -0.2864
     22  CB        24.5800   28.0880   28.7070 C.3    22  LYS22       0.0298
     23  CG        23.5660   28.3180   29.8020 C.3    22  LYS22       0.0038
     24  CD        23.4710   27.0810   30.6740 C.3    22  LYS22       0.0206
     25  CE        22.8620   27.4330   32.0090 C.3    22  LYS22       0.1093
     26  NZ        23.4320   26.6150   33.1370 N.3    22  LYS22      -0.1314
     27  N         28.4380   34.1510   24.3390 N.3    25  LYS25      -0.1245
     28  CA        28.4620   35.3510   25.1650 C.3    25  LYS25       0.1561
     29  C         28.0510   36.5800   24.3720 C.2    25  LYS25       0.2260
     30  O         28.1200   36.5860   23.1530 O.2    25  LYS25      -0.2867
     31  CB        29.8810   35.5790   25.7210 C.3    25  LYS25       0.0271
     32  CG        30.3880   34.4790   26.6530 C.3    25  LYS25       0.0035
     33  CD        31.8990   34.2990   26.4790 C.3    25  LYS25       0.0206
     34  CE        32.2380   33.1950   25.4630 C.3    25  LYS25       0.1093
     35  NZ        33.6110   33.3260   24.8630 N.3    25  LYS25      -0.1314
     36  N         25.0620   38.5840   25.2270 N.3    27  ILE27      -0.1231
     37  CA        23.6630   38.9570   25.5050 C.3    27  ILE27       0.1692
     38  C         23.3950   38.7520   26.9640 C.2    27  ILE27       0.2592
     39  O         23.8210   37.7440   27.5310 O.2    27  ILE27      -0.2718
     40  CB        22.6390   38.0480   24.7520 C.3    27  ILE27       0.0266
     41  CG1       22.8510   38.0700   23.2520 C.3    27  ILE27       0.0019
     42  CG2       21.1940   38.4140   25.0840 C.3    27  ILE27       0.0020
     43  CD1       22.7860   39.3790   22.6160 C.3    27  ILE27       0.0001
     44  N         22.6940   39.6950   27.5850 N.am   28  ARG28      -0.1966
     45  CA        22.2880   39.5270   28.9630 C.3    28  ARG28       0.1729
     46  C         20.7620   39.3960   29.0330 C.2    28  ARG28       0.2616
     47  O         20.0650   40.2860   28.5950 O.2    28  ARG28      -0.2715
     48  CB        22.7480   40.7330   29.7840 C.3    28  ARG28       0.0348
     49  CG        22.3100   40.7290   31.2470 C.3    28  ARG28       0.0492
     50  CD        23.1110   39.7580   32.1030 C.3    28  ARG28       0.2205
     51  NE        24.4610   39.4980   31.5780 N.pl3  28  ARG28      -0.0865
     52  CZ        25.2590   38.5180   31.9950 C.cat  28  ARG28       0.5346
     53  NH1       24.8750   37.6990   32.9570 N.pl3  28  ARG28       0.1354
     54  NH2       26.4430   38.3510   31.4240 N.pl3  28  ARG28       0.1354
     55  N         20.2640   38.3020   29.5980 N.am   29  LEU29      -0.1977
     56  CA        18.8390   38.1400   29.8220 C.3    29  LEU29       0.1596
     57  C         18.4380   38.9880   31.0270 C.2    29  LEU29       0.2287
     58  O         18.9550   38.7670   32.1360 O.2    29  LEU29      -0.2864
     59  CB        18.4770   36.6720   30.0880 C.3    29  LEU29       0.0297
     60  CG        16.9960   36.3130   30.3090 C.3    29  LEU29       0.0022
     61  CD1       16.1450   36.5600   29.0560 C.3    29  LEU29       0.0001
     62  CD2       16.8170   34.8680   30.7900 C.3    29  LEU29       0.0001
     63  N         18.5670   30.4630   38.1070 N.3    47  GLU47      -0.1231
     64  CA        19.7570   30.1310   37.3060 C.3    47  GLU47       0.1699
     65  C         20.3210   31.3370   36.5590 C.2    47  GLU47       0.2592
     66  O         21.5370   31.4780   36.4160 O.2    47  GLU47      -0.2718
     67  CB        19.4170   29.0150   36.3110 C.3    47  GLU47       0.0402
     68  CG        20.1490   27.6610   36.5270 C.3    47  GLU47       0.1161
     69  CD        19.5580   26.7570   37.6210 C.2    47  GLU47       0.3649
     70  OE1       20.3710   26.0460   38.2700 O.co2  47  GLU47      -0.2457
     71  OE2       18.3080   26.7250   37.8340 O.co2  47  GLU47      -0.2457
     72  N         19.4360   32.1950   36.0620 N.am   48  PHE48      -0.1962
     73  CA        19.8370   33.3320   35.2390 C.3    48  PHE48       0.1771
     74  C         19.7950   34.7010   35.9510 C.2    48  PHE48       0.2619
     75  O         20.0710   35.7430   35.3320 O.2    48  PHE48      -0.2715
     76  CB        19.0080   33.3450   33.9270 C.3    48  PHE48       0.0574
     77  CG        19.3420   32.2000   33.0130 C.ar   48  PHE48      -0.0200
     78  CD1       18.8090   30.9500   33.2410 C.ar   48  PHE48      -0.0042
     79  CD2       20.2390   32.3590   31.9680 C.ar   48  PHE48      -0.0042
     80  CE1       19.1340   29.8860   32.4270 C.ar   48  PHE48      -0.0003
     81  CE2       20.5690   31.2820   31.1460 C.ar   48  PHE48      -0.0003
     82  CZ        20.0240   30.0620   31.3880 C.ar   48  PHE48      -0.0000
     83  N         19.4650   34.6900   37.2380 N.am   49  ASN49      -0.1972
     84  CA        19.4030   35.9240   38.0540 C.3    49  ASN49       0.1688
     85  C         18.5390   36.9960   37.3880 C.2    49  ASN49       0.2292
     86  O         18.9270   38.1510   37.2620 O.2    49  ASN49      -0.2864
     87  CB        20.8040   36.4390   38.3900 C.3    49  ASN49       0.1181
     88  CG        21.6050   35.4330   39.2170 C.2    49  ASN49       0.2629
     89  OD1       21.1480   34.9690   40.2720 O.2    49  ASN49      -0.2716
     90  ND2       22.8030   35.0800   38.7310 N.am   49  ASN49      -0.0877
@<TRIPOS>BOND
     1    43    41    1
     2    30    29    2
     3    41    40    1
     4    27    28    1
     5    29    28    1
     6    40    42    1
     7    40    37    1
     8    35    34    1
     9    28    31    1
    10    36    37    1
    11    10    11    1
    12    34    33    1
    13    37    38    1
    14     3     4    2
    15     3     2    1
    16    17    15    1
    17    31    32    1
    18     2     1    1
    19     2     5    1
    20    11    12    1
    21    11    14    1
    22    15    14    1
    23    15    16    1
    24    33    32    1
    25    38    39    2
    26    38    44   am
    27    12    13    2
    28    12    18   am
    29    20    21    2
    30    20    19    1
    31     5     6    1
    32    18    19    1
    33    44    45    1
    34     6     7    1
    35    19    22    1
    36    47    46    2
    37    22    23    1
    38     7     8   ar
    39     7     9   ar
    40    45    46    1
    41    45    48    1
    42    46    55   am
    43    61    60    1
    44    55    56    1
    45    48    49    1
    46    23    24    1
    47    56    59    1
    48    56    57    1
    49    59    60    1
    50    60    62    1
    51    24    25    1
    52    57    58    2
    53    81    82   ar
    54    81    79   ar
    55    49    50    1
    56    82    80   ar
    57    54    52    1
    58    51    52    2
    59    51    50    1
    60    79    77   ar
    61    52    53    1
    62    25    26    1
    63    80    78   ar
    64    77    78   ar
    65    77    76    1
    66    76    73    1
    67    73    74    1
    68    73    72    1
    69    75    74    2
    70    74    83   am
    71    72    65   am
    72    67    68    1
    73    67    64    1
    74    66    65    2
    75    68    69    1
    76    65    64    1
    77    83    84    1
    78    86    85    2
    79    64    63    1
    80    85    84    1
    81    69    71   ar
    82    69    70   ar
    83    84    87    1
    84    87    88    1
    85    90    88   am
    86    88    89    2
