@<TRIPOS>MOLECULE
tmp/3a09A00.pdb
 262 254 0 0 0
SMALL
GASTEIGER

@<TRIPOS>ATOM
      1  N        -19.1790    9.5650   17.7610 N.3    20  ARG20      -0.1231
      2  CA       -19.9300    9.1480   18.9600 C.3    20  ARG20       0.1694
      3  C        -21.0340   10.1190   19.2950 C.2    20  ARG20       0.2592
      4  O        -21.4620   10.2120   20.4820 O.2    20  ARG20      -0.2718
      5  CB       -18.9240    8.8950   20.1070 C.3    20  ARG20       0.0321
      6  CG       -17.9710    7.7910   19.6600 C.3    20  ARG20       0.0489
      7  CD       -17.0800    7.2550   20.7810 C.3    20  ARG20       0.2205
      8  NE       -16.3400    6.0950   20.2910 N.pl3  20  ARG20      -0.0865
      9  CZ       -15.0730    5.7860   20.5410 C.cat  20  ARG20       0.5346
     10  NH1      -14.5520    4.6800   20.0050 N.pl3  20  ARG20       0.1354
     11  NH2      -14.2960    6.5420   21.2930 N.pl3  20  ARG20       0.1354
     12  N        -21.5310   10.8240   18.2680 N.am   21  ASP21      -0.1960
     13  CA       -22.6010   11.8070   18.4650 C.3    21  ASP21       0.1840
     14  C        -22.3010   12.8730   19.5260 C.2    21  ASP21       0.2622
     15  O        -23.2710   13.5500   19.9140 O.2    21  ASP21      -0.2715
     16  CB       -23.9600   11.1870   18.8640 C.3    21  ASP21       0.1450
     17  CG       -24.4260   10.1970   17.8350 C.2    21  ASP21       0.3671
     18  OD1      -24.0140   10.2100   16.6430 O.co2  21  ASP21      -0.2456
     19  OD2      -25.2740    9.3540   18.2100 O.co2  21  ASP21      -0.2456
     20  N        -21.0540   13.0330   19.9760 N.am   22  LYS22      -0.1963
     21  CA       -20.7360   13.9080   21.0850 C.3    22  LYS22       0.1728
     22  C        -19.4320   14.6850   20.8880 C.2    22  LYS22       0.2616
     23  O        -19.2580   15.6990   21.5430 O.2    22  LYS22      -0.2715
     24  CB       -20.5890   13.1240   22.4150 C.3    22  LYS22       0.0311
     25  CG       -21.9040   12.4850   22.8340 C.3    22  LYS22       0.0038
     26  CD       -21.7810   11.7430   24.1350 C.3    22  LYS22       0.0206
     27  CE       -21.0310   10.4270   23.8720 C.3    22  LYS22       0.1093
     28  NZ       -21.8460    9.4550   23.0850 N.3    22  LYS22      -0.1314
     29  N        -18.5080   14.2610   20.0230 N.am   23  TRP23      -0.1974
     30  CA       -17.1500   14.8290   20.0700 C.3    23  TRP23       0.1640
     31  C        -16.6470   15.2060   18.6880 C.2    23  TRP23       0.2290
     32  O        -17.0910   14.6530   17.6770 O.2    23  TRP23      -0.2864
     33  CB       -16.2640   13.7950   20.7620 C.3    23  TRP23       0.0576
     34  CG       -16.6350   13.5400   22.2000 C.ar   23  TRP23       0.0006
     35  CD1      -16.7080   14.5100   23.1800 C.ar   23  TRP23       0.0946
     36  CD2      -16.9680   12.2870   22.8330 C.ar   23  TRP23       0.0152
     37  NE1      -17.0700   13.9150   24.3800 N.ar   23  TRP23      -0.2442
     38  CE2      -17.2390   12.5530   24.1980 C.ar   23  TRP23       0.0810
     39  CE3      -17.0880   10.9540   22.4430 C.ar   23  TRP23       0.0012
     40  CZ2      -17.5990   11.5550   25.1050 C.ar   23  TRP23       0.0191
     41  CZ3      -17.4470    9.9330   23.3390 C.ar   23  TRP23       0.0001
     42  CH2      -17.7050   10.2370   24.6890 C.ar   23  TRP23       0.0015
     43  N        -16.4040    7.1330   13.8510 N.3    74  ASP74      -0.1225
     44  CA       -16.9800    5.7970   14.0440 C.3    74  ASP74       0.1805
     45  C        -18.0150    5.4850   12.9760 C.2    74  ASP74       0.2597
     46  O        -18.7060    6.3790   12.4300 O.2    74  ASP74      -0.2718
     47  CB       -17.6170    5.7110   15.4560 C.3    74  ASP74       0.1424
     48  CG       -18.7660    6.7210   15.5270 C.2    74  ASP74       0.3668
     49  OD1      -18.4810    7.9350   15.5290 O.co2  74  ASP74      -0.2456
     50  OD2      -19.9740    6.4090   15.5950 O.co2  74  ASP74      -0.2456
     51  N        -18.1440    4.2130   12.6650 N.am   75  ASN75      -0.1974
     52  CA       -19.2560    3.7100   11.8580 C.3    75  ASN75       0.1688
     53  C        -19.2370    4.3120   10.4670 C.2    75  ASN75       0.2292
     54  O        -20.2970    4.5580    9.8860 O.2    75  ASN75      -0.2864
     55  CB       -20.5750    3.9170   12.5890 C.3    75  ASN75       0.1181
     56  CG       -20.6990    2.9690   13.7930 C.2    75  ASN75       0.2629
     57  OD1      -20.6890    1.7410   13.6560 O.2    75  ASN75      -0.2716
     58  ND2      -20.8350    3.4620   15.0070 N.am   75  ASN75      -0.0877
     59  N         -9.7370    1.7070   13.3040 N.3   129  TYR129     -0.1241
     60  CA        -9.5870    1.4290   14.7290 C.3   129  TYR129      0.1605
     61  C         -9.5030   -0.0910   14.8980 C.2   129  TYR129      0.2264
     62  O        -10.4410   -0.8370   14.5920 O.2   129  TYR129     -0.2867
     63  CB       -10.8250    1.9380   15.4510 C.3   129  TYR129      0.0534
     64  CG       -11.0210    1.6120   16.8960 C.ar  129  TYR129     -0.0201
     65  CD1      -10.0060    1.2760   17.8110 C.ar  129  TYR129     -0.0009
     66  CD2      -12.3360    1.6520   17.3880 C.ar  129  TYR129     -0.0009
     67  CE1      -10.2760    0.9870   19.1390 C.ar  129  TYR129      0.0417
     68  CE2      -12.6100    1.3690   18.7170 C.ar  129  TYR129      0.0417
     69  CZ       -11.5840    1.0330   19.5810 C.ar  129  TYR129      0.1957
     70  OH       -11.8270    0.7580   20.9320 O.3   129  TYR129     -0.2866
     71  N         -9.3260   -2.5800   17.7950 N.3   131  PRO131     -0.2116
     72  CA        -9.3840   -2.9020   19.2180 C.3   131  PRO131      0.1372
     73  C         -8.4260   -4.0210   19.6360 C.2   131  PRO131      0.2244
     74  O         -7.9110   -4.7770   18.7950 O.2   131  PRO131     -0.2868
     75  CB       -10.8150   -3.4290   19.4040 C.3   131  PRO131      0.0268
     76  CG       -11.5420   -2.6700   18.3200 C.3   131  PRO131      0.0207
     77  CD       -10.6170   -2.7490   17.1170 C.3   131  PRO131      0.0892
     78  N        -18.7590   -6.7910   26.4070 N.3   137  ARG137     -0.1245
     79  CA       -19.8360   -6.6220   27.4060 C.3   137  ARG137      0.1563
     80  C        -20.2350   -7.8550   28.1820 C.2   137  ARG137      0.2260
     81  O        -20.0180   -8.9860   27.7330 O.2   137  ARG137     -0.2867
     82  CB       -21.0970   -6.1270   26.6900 C.3   137  ARG137      0.0307
     83  CG       -20.9240   -4.7540   25.9960 C.3   137  ARG137      0.0489
     84  CD       -22.2040   -4.3090   25.3630 C.3   137  ARG137      0.2205
     85  NE       -22.3410   -2.9410   24.9190 N.pl3 137  ARG137     -0.0865
     86  CZ       -22.0070   -2.5300   23.6880 C.cat 137  ARG137      0.5346
     87  NH1      -21.4820   -3.3810   22.8060 N.pl3 137  ARG137      0.1354
     88  NH2      -22.2200   -1.2560   23.3540 N.pl3 137  ARG137      0.1354
     89  N        -26.5800    2.5480   28.7440 N.3   186  ARG186     -0.1231
     90  CA       -26.0190    3.6390   27.9740 C.3   186  ARG186      0.1694
     91  C        -26.3830    3.5530   26.4850 C.2   186  ARG186      0.2592
     92  O        -26.3910    4.6110   25.8180 O.2   186  ARG186     -0.2718
     93  CB       -24.4870    3.6240   27.9550 C.3   186  ARG186      0.0321
     94  CG       -23.6640    3.8930   29.1590 C.3   186  ARG186      0.0489
     95  CD       -22.2630    4.1620   28.6800 C.3   186  ARG186      0.2205
     96  NE       -21.4280    2.9400   28.7060 N.pl3 186  ARG186     -0.0865
     97  CZ       -20.1780    2.9780   28.1990 C.cat 186  ARG186      0.5346
     98  NH1      -19.6750    4.0770   27.6670 N.pl3 186  ARG186      0.1354
     99  NH2      -19.4390    1.8920   28.2520 N.pl3 186  ARG186      0.1354
    100  N        -26.6210    2.3260   25.9910 N.am  187  ASP187     -0.1974
    101  CA       -26.8470    2.2000   24.5370 C.3   187  ASP187      0.1709
    102  C        -28.2850    1.8140   24.2100 C.2   187  ASP187      0.2293
    103  O        -28.7270    0.7290   24.6390 O.2   187  ASP187     -0.2864
    104  CB       -25.9190    1.0890   23.9760 C.3   187  ASP187      0.1436
    105  CG       -24.4450    1.4300   24.2060 C.2   187  ASP187      0.3671
    106  OD1      -23.7780    0.7050   24.9760 O.co2 187  ASP187     -0.2456
    107  OD2      -24.0410    2.4210   23.5520 O.co2 187  ASP187     -0.2456
    108  N        -20.0550   -6.8720   17.0700 N.3   206  ASN206     -0.1240
    109  CA       -20.0560   -5.5950   17.7910 C.3   206  ASN206      0.1653
    110  C        -20.5990   -4.4520   16.9400 C.2   206  ASN206      0.2266
    111  O        -20.9670   -3.3960   17.4880 O.2   206  ASN206     -0.2867
    112  CB       -18.6170   -5.2930   18.2370 C.3   206  ASN206      0.1155
    113  CG       -18.5120   -4.1460   19.2070 C.2   206  ASN206      0.2627
    114  OD1      -17.8330   -3.1530   18.9250 O.2   206  ASN206     -0.2716
    115  ND2      -19.1250   -4.2580   20.3930 N.am  206  ASN206     -0.0877
    116  N        -23.4700   -2.5930   15.3630 N.3   208  TRP208     -0.1241
    117  CA       -24.8960   -2.7730   15.5800 C.3   208  TRP208      0.1605
    118  C        -25.6410   -3.2350   14.3300 C.2   208  TRP208      0.2264
    119  O        -25.2640   -2.9090   13.2010 O.2   208  TRP208     -0.2867
    120  CB       -25.5060   -1.4390   15.9550 C.3   208  TRP208      0.0550
    121  CG       -25.0720   -0.8980   17.2730 C.ar  208  TRP208      0.0003
    122  CD1      -24.4890    0.3120   17.4930 C.ar  208  TRP208      0.0946
    123  CD2      -25.1930   -1.5400   18.5510 C.ar  208  TRP208      0.0152
    124  NE1      -24.2410    0.4520   18.8570 N.ar  208  TRP208     -0.2442
    125  CE2      -24.6560   -0.6600   19.5250 C.ar  208  TRP208      0.0810
    126  CE3      -25.6910   -2.7680   18.9800 C.ar  208  TRP208      0.0012
    127  CZ2      -24.6090   -0.9640   20.8730 C.ar  208  TRP208      0.0191
    128  CZ3      -25.6450   -3.0720   20.3450 C.ar  208  TRP208      0.0001
    129  CH2      -25.1090   -2.1770   21.2760 C.ar  208  TRP208      0.0015
    130  N        -25.4800    8.5050   27.0950 N.3   252  ALA252     -0.1245
    131  CA       -24.1010    8.2680   27.5550 C.3   252  ALA252      0.1562
    132  C        -23.8990    8.2480   29.0470 C.2   252  ALA252      0.2260
    133  O        -23.0150    7.4770   29.4700 O.2   252  ALA252     -0.2867
    134  CB       -23.1330    9.2850   26.9400 C.3   252  ALA252      0.0290
    135  N        -19.7610   -2.8840   29.1120 N.3   270  TRP270     -0.1241
    136  CA       -18.3660   -3.3230   29.1290 C.3   270  TRP270      0.1605
    137  C        -17.8710   -3.5630   30.5310 C.2   270  TRP270      0.2264
    138  O        -18.1930   -2.7760   31.4490 O.2   270  TRP270     -0.2867
    139  CB       -17.5130   -2.2670   28.4210 C.3   270  TRP270      0.0550
    140  CG       -17.6910   -2.1430   26.9400 C.ar  270  TRP270      0.0003
    141  CD1      -18.7810   -1.6130   26.3040 C.ar  270  TRP270      0.0946
    142  CD2      -16.7810   -2.5410   25.9100 C.ar  270  TRP270      0.0152
    143  NE1      -18.5850   -1.6640   24.9480 N.ar  270  TRP270     -0.2442
    144  CE2      -17.3630   -2.2280   24.6770 C.ar  270  TRP270      0.0810
    145  CE3      -15.5040   -3.1390   25.9350 C.ar  270  TRP270      0.0012
    146  CZ2      -16.7350   -2.4830   23.4590 C.ar  270  TRP270      0.0191
    147  CZ3      -14.8700   -3.3950   24.7220 C.ar  270  TRP270      0.0001
    148  CH2      -15.4700   -3.0760   23.5000 C.ar  270  TRP270      0.0015
    149  N        -14.9120   -3.3920   32.2030 N.3   272  ALA272     -0.1231
    150  CA       -14.0440   -2.5250   33.0130 C.3   272  ALA272      0.1694
    151  C        -14.7500   -1.2780   33.5020 C.2   272  ALA272      0.2592
    152  O        -14.7510   -1.0090   34.7460 O.2   272  ALA272     -0.2718
    153  CB       -12.7910   -2.1470   32.2600 C.3   272  ALA272      0.0304
    154  N        -15.3410   -0.5280   32.5970 N.am  273  SER273     -0.1952
    155  CA       -15.9450    0.7510   33.0740 C.3   273  SER273      0.1924
    156  C        -17.1990    0.5090   33.9010 C.2   273  SER273      0.2314
    157  O        -17.4790    1.2930   34.8130 O.2   273  SER273     -0.2863
    158  CB       -16.2240    1.6880   31.8850 C.3   273  SER273      0.2116
    159  OG       -17.2480    1.0980   31.1070 O.3   273  SER273     -0.2180
    160  N        -15.4420   -8.1300   21.3570 N.3   309  ARG309     -0.1245
    161  CA       -14.6110   -7.1530   20.6650 C.3   309  ARG309      0.1563
    162  C        -14.5050   -7.5270   19.1940 C.2   309  ARG309      0.2260
    163  O        -14.4460   -8.7230   18.8830 O.2   309  ARG309     -0.2867
    164  CB       -13.1930   -7.1440   21.2620 C.3   309  ARG309      0.0307
    165  CG       -12.9860   -5.9060   22.0920 C.3   309  ARG309      0.0489
    166  CD       -11.8180   -5.8870   22.9920 C.3   309  ARG309      0.2205
    167  NE       -12.2010   -6.0850   24.3870 N.pl3 309  ARG309     -0.0865
    168  CZ       -11.8530   -5.1640   25.2650 C.cat 309  ARG309      0.5346
    169  NH1      -11.1720   -4.0860   24.8680 N.pl3 309  ARG309      0.1354
    170  NH2      -12.1750   -5.3100   26.5490 N.pl3 309  ARG309      0.1354
    171  N        -12.7440   -2.6170   13.9770 N.3   313  ARG313     -0.1245
    172  CA       -14.0600   -1.9750   13.9640 C.3   313  ARG313      0.1563
    173  C        -14.3060   -1.1920   12.6880 C.2   313  ARG313      0.2260
    174  O        -13.3400   -0.8550   11.9960 O.2   313  ARG313     -0.2867
    175  CB       -14.2050   -1.0370   15.1940 C.3   313  ARG313      0.0307
    176  CG       -14.6810   -1.8160   16.4100 C.3   313  ARG313      0.0489
    177  CD       -15.6780   -1.1150   17.2900 C.3   313  ARG313      0.2205
    178  NE       -16.4870   -0.1240   16.6540 N.pl3 313  ARG313     -0.0865
    179  CZ       -17.7810   -0.1520   16.4000 C.cat 313  ARG313      0.5346
    180  NH1      -18.4850   -1.2070   16.7750 N.pl3 313  ARG313      0.1354
    181  NH2      -18.3360    0.8960   15.7790 N.pl3 313  ARG313      0.1354
    182  N        -14.6390    1.7000   12.0130 N.3   315  ASP315     -0.1295
    183  CA       -14.2800    3.0520   12.4530 C.3   315  ASP315      0.1359
    184  C        -12.9020    3.4340   11.9370 C.3   315  ASP315      0.2015
    185  O        -12.1360    2.4680   11.8200 O.3   315  ASP315     -0.2188
    186  CB       -14.2240    3.1300   13.9780 C.3   315  ASP315      0.1357
    187  CG       -15.4200    2.6110   14.7310 C.2   315  ASP315      0.3664
    188  OD1      -16.5660    2.4800   14.2020 O.co2 315  ASP315     -0.2456
    189  OD2      -15.2600    2.3220   15.9390 O.co2 315  ASP315     -0.2456
    190  N        -11.2910    5.2380   30.1830 N.3   375  ASN375     -0.1240
    191  CA       -11.4760    5.5270   28.7280 C.3   375  ASN375      0.1653
    192  C        -12.1240    6.8910   28.5250 C.2   375  ASN375      0.2266
    193  O        -11.7430    7.6300   27.6100 O.2   375  ASN375     -0.2867
    194  CB       -12.2510    4.4090   28.0360 C.3   375  ASN375      0.1155
    195  CG       -13.5500    3.9350   28.6270 C.2   375  ASN375      0.2627
    196  OD1      -13.9190    4.3890   29.7320 O.2   375  ASN375     -0.2716
    197  ND2      -14.2580    3.0390   27.9470 N.am  375  ASN375     -0.0877
    198  N        -10.7090    9.9690   26.2050 N.3   379  TYR379     -0.1241
    199  CA       -11.3780   10.7180   25.1280 C.3   379  TYR379      0.1605
    200  C        -11.1670   12.2230   25.2430 C.2   379  TYR379      0.2264
    201  O        -11.0210   12.9500   24.2630 O.2   379  TYR379     -0.2867
    202  CB       -12.8810   10.4470   25.1540 C.3   379  TYR379      0.0534
    203  CG       -13.3220    8.9860   25.1160 C.ar  379  TYR379     -0.0201
    204  CD1      -14.4970    8.6090   25.7530 C.ar  379  TYR379     -0.0009
    205  CD2      -12.5980    7.9740   24.4850 C.ar  379  TYR379     -0.0009
    206  CE1      -14.9590    7.3030   25.7720 C.ar  379  TYR379      0.0417
    207  CE2      -13.0640    6.6520   24.4840 C.ar  379  TYR379      0.0417
    208  CZ       -14.2430    6.3090   25.1200 C.ar  379  TYR379      0.1957
    209  OH       -14.7110    4.9940   25.1320 O.3   379  TYR379     -0.2866
    210  N         -7.7850    7.0390   22.7760 N.3   384  GLN384     -0.1245
    211  CA        -8.8670    6.0790   22.6520 C.3   384  GLN384      0.1566
    212  C         -9.9840    6.6210   21.7520 C.2   384  GLN384      0.2260
    213  O        -11.1760    6.3180   21.9850 O.2   384  GLN384     -0.2867
    214  CB        -9.4650    5.6900   24.0210 C.3   384  GLN384      0.0367
    215  CG        -8.4090    5.0340   24.9360 C.3   384  GLN384      0.0905
    216  CD        -7.8290    3.7620   24.3610 C.2   384  GLN384      0.2608
    217  OE1       -8.4910    2.9860   23.6220 O.2   384  GLN384     -0.2717
    218  NE2       -6.5890    3.4240   24.6750 N.am  384  GLN384     -0.0878
    219  N         -5.2890   -0.2160   19.3450 N.3   391  GLN391     -0.1245
    220  CA        -5.4830   -0.2480   20.7970 C.3   391  GLN391      0.1566
    221  C         -4.5520   -1.2600   21.4420 C.2   391  GLN391      0.2260
    222  O         -4.2130   -2.2760   20.8260 O.2   391  GLN391     -0.2867
    223  CB        -6.9460   -0.6030   21.0840 C.3   391  GLN391      0.0367
    224  CG        -7.3240   -0.5240   22.5810 C.3   391  GLN391      0.0905
    225  CD        -8.8280   -0.7340   22.7340 C.2   391  GLN391      0.2608
    226  OE1       -9.3320   -1.7510   22.2840 O.2   391  GLN391     -0.2717
    227  NE2       -9.5010    0.2120   23.3670 N.am  391  GLN391     -0.0878
    228  N         -3.4330   -0.8600   28.2890 N.3   395  TYR395     -0.1227
    229  CA        -4.0210    0.4030   28.8260 C.3   395  TYR395      0.1736
    230  C         -5.2260    0.0630   29.6860 C.2   395  TYR395      0.2595
    231  O         -5.4740    0.6980   30.7230 O.2   395  TYR395     -0.2718
    232  CB        -4.3470    1.3630   27.6830 C.3   395  TYR395      0.0548
    233  CG        -5.8300    1.5600   27.4650 C.ar  395  TYR395     -0.0200
    234  CD1       -6.4960    2.6360   28.0720 C.ar  395  TYR395     -0.0009
    235  CD2       -6.5370    0.6780   26.6630 C.ar  395  TYR395     -0.0009
    236  CE1       -7.8560    2.8080   27.8760 C.ar  395  TYR395      0.0417
    237  CE2       -7.9070    0.8630   26.4870 C.ar  395  TYR395      0.0417
    238  CZ        -8.5640    1.9270   27.0860 C.ar  395  TYR395      0.1957
    239  OH        -9.9250    2.1630   26.9290 O.3   395  TYR395     -0.2866
    240  N         -5.9740   -0.9570   29.2760 N.am  396  GLU396     -0.1979
    241  CA        -7.2440   -1.2840   29.9270 C.3   396  GLU396      0.1602
    242  C         -7.0640   -2.1620   31.1610 C.2   396  GLU396      0.2287
    243  O         -7.7630   -2.0690   32.1880 O.2   396  GLU396     -0.2864
    244  CB        -8.1170   -2.0390   28.8890 C.3   396  GLU396      0.0415
    245  CG        -9.5030   -2.3790   29.3750 C.3   396  GLU396      0.1163
    246  CD       -10.4120   -2.9170   28.3160 C.2   396  GLU396      0.3649
    247  OE1      -10.2630   -2.5890   27.1070 O.co2 396  GLU396     -0.2457
    248  OE2      -11.3240   -3.6800   28.6660 O.co2 396  GLU396     -0.2457
    249  N         -6.8900   -0.5020   34.6600 N.3   399  TRP399     -0.1241
    250  CA        -8.0810    0.0220   35.3590 C.3   399  TRP399      0.1605
    251  C         -9.2290   -0.9900   35.3160 C.2   399  TRP399      0.2264
    252  O        -10.4000   -0.6160   35.5040 O.2   399  TRP399     -0.2867
    253  CB        -8.5310    1.3470   34.7970 C.3   399  TRP399      0.0550
    254  CG        -8.7250    1.4640   33.3140 C.ar  399  TRP399      0.0003
    255  CD1       -7.7390    1.6150   32.3750 C.ar  399  TRP399      0.0946
    256  CD2       -9.9810    1.4410   32.6110 C.ar  399  TRP399      0.0152
    257  NE1       -8.3270    1.6920   31.1200 N.ar  399  TRP399     -0.2442
    258  CE2       -9.6760    1.5860   31.2430 C.ar  399  TRP399      0.0810
    259  CE3      -11.3200    1.3080   33.0310 C.ar  399  TRP399      0.0012
    260  CZ2      -10.6870    1.6050   30.2710 C.ar  399  TRP399      0.0191
    261  CZ3      -12.3290    1.3270   32.0890 C.ar  399  TRP399      0.0001
    262  CH2      -11.9790    1.4740   30.7350 C.ar  399  TRP399      0.0015
@<TRIPOS>BOND
     1    54    53    2
     2    53    52    1
     3   185   184    1
     4    52    55    1
     5    52    51    1
     6   184   183    1
     7   174   173    2
     8   182   183    1
     9    46    45    2
    10   183   186    1
    11    55    56    1
    12    51    45   am
    13   173   172    1
    14    45    44    1
    15   119   118    2
    16    59    60    1
    17    57    56    2
    18    56    58   am
    19    43    44    1
    20   172   171    1
    21   172   175    1
    22   186   187    1
    23    44    47    1
    24   188   187   ar
    25   118   117    1
    26    62    61    2
    27    60    61    1
    28    60    63    1
    29   187   189   ar
    30   175   176    1
    31   116   117    1
    32    63    64    1
    33    47    48    1
    34    48    49   ar
    35    48    50   ar
    36   117   120    1
    37   181   179    1
    38   120   121    1
    39   179   178    2
    40   179   180    1
    41   176   177    1
    42    18    17   ar
    43   178   177    1
    44    64    66   ar
    45    64    65   ar
    46   110   111    2
    47   110   109    1
    48   108   109    1
    49    77    71    1
    50    77    76    1
    51   121   122   ar
    52   121   123   ar
    53    66    68   ar
    54   122   124   ar
    55    32    31    2
    56     1     2    1
    57   109   112    1
    58    71    72    1
    59    65    67   ar
    60    17    19   ar
    61    17    16    1
    62   112   113    1
    63    12    13    1
    64    12     3   am
    65    76    75    1
    66    13    16    1
    67    13    14    1
    68   123   126   ar
    69   123   125   ar
    70    31    30    1
    71    68    69   ar
    72    74    73    2
    73   124   125   ar
    74   163   162    2
    75   114   113    2
    76     2     3    1
    77     2     5    1
    78   126   128   ar
    79    67    69   ar
    80   162   161    1
    81   113   115   am
    82    72    75    1
    83    72    73    1
    84     3     4    2
    85   219   220    1
    86   125   127   ar
    87    14    15    2
    88    14    20   am
    89    69    70    1
    90     6     5    1
    91     6     7    1
    92    20    21    1
    93    10     9    1
    94    29    30    1
    95    29    22   am
    96    30    33    1
    97     8     9    2
    98     8     7    1
    99   128   129   ar
   100     9    11    1
   101   161   164    1
   102   161   160    1
   103    33    34    1
   104   220   223    1
   105   220   221    1
   106   222   221    2
   107   127   129   ar
   108    22    21    1
   109    22    23    2
   110   223   224    1
   111    21    24    1
   112   164   165    1
   113   212   213    2
   114   212   211    1
   115   165   166    1
   116    34    36   ar
   117    34    35   ar
   118   226   225    2
   119    24    25    1
   120    39    36   ar
   121    39    41   ar
   122   224   225    1
   123   211   210    1
   124   211   214    1
   125   225   227   am
   126    87    86    1
   127    36    38   ar
   128    25    26    1
   129   166   167    1
   130    28    27    1
   131    35    37   ar
   132    41    42   ar
   133    88    86    1
   134   146   148   ar
   135   146   144   ar
   136   148   147   ar
   137   107   105   ar
   138   217   216    2
   139    86    85    2
   140    27    26    1
   141   104   105    1
   142   104   101    1
   143   214   215    1
   144    38    37   ar
   145    38    40   ar
   146   105   106   ar
   147   102   101    1
   148   102   103    2
   149   201   200    2
   150   216   218   am
   151   216   215    1
   152   167   168    2
   153   207   205   ar
   154   207   208   ar
   155   205   203   ar
   156   101   100    1
   157   144   143   ar
   158   144   142   ar
   159    42    40   ar
   160   147   145   ar
   161   169   168    1
   162    85    84    1
   163   143   141   ar
   164   203   202    1
   165   203   204   ar
   166   208   209    1
   167   208   206   ar
   168   199   202    1
   169   199   200    1
   170   199   198    1
   171   168   170    1
   172    84    83    1
   173   204   206   ar
   174    92    91    2
   175   142   145   ar
   176   142   140   ar
   177   100    91   am
   178    83    82    1
   179   141   140   ar
   180    78    79    1
   181    91    90    1
   182   237   235   ar
   183   237   238   ar
   184   235   233   ar
   185    82    79    1
   186   239   238    1
   187   140   139    1
   188   134   131    1
   189   238   236   ar
   190   130   131    1
   191   247   246   ar
   192    79    80    1
   193   233   232    1
   194   233   234   ar
   195   131   132    1
   196   193   192    2
   197    98    97    1
   198   232   229    1
   199    81    80    2
   200   236   234   ar
   201   197   195   am
   202    93    90    1
   203    93    94    1
   204    90    89    1
   205   194   195    1
   206   194   191    1
   207    97    99    1
   208    97    96    2
   209   228   229    1
   210   246   248   ar
   211   246   245    1
   212   139   136    1
   213   192   191    1
   214   195   196    2
   215    95    96    1
   216    95    94    1
   217   191   190    1
   218   229   230    1
   219   244   245    1
   220   244   241    1
   221   132   133    2
   222   135   136    1
   223   136   137    1
   224   240   230   am
   225   240   241    1
   226   230   231    2
   227   241   242    1
   228   260   262   ar
   229   260   258   ar
   230   137   138    2
   231   262   261   ar
   232   159   158    1
   233   257   258   ar
   234   257   255   ar
   235   242   243    2
   236   258   256   ar
   237   158   155    1
   238   261   259   ar
   239   149   150    1
   240   153   150    1
   241   255   254   ar
   242   154   155    1
   243   154   151   am
   244   256   259   ar
   245   256   254   ar
   246   150   151    1
   247   155   156    1
   248   254   253    1
   249   151   152    2
   250   156   157    2
   251   249   250    1
   252   253   250    1
   253   251   250    1
   254   251   252    2
