@<TRIPOS>MOLECULE
tmp/3a0bC07.pdb
 140 135 0 0 0
SMALL
GASTEIGER

@<TRIPOS>ATOM
      1  N         38.3980   74.0700   75.2130 N.3    41  MET41      -0.1245
      2  CA        37.6410   72.9320   75.7150 C.3    41  MET41       0.1570
      3  C         38.1220   72.4430   77.0610 C.2    41  MET41       0.2261
      4  O         37.3340   71.9160   77.8370 O.2    41  MET41      -0.2867
      5  CB        37.6740   71.7680   74.7260 C.3    41  MET41       0.0387
      6  CG        36.6620   70.6640   75.0680 C.3    41  MET41       0.0595
      7  SD        35.3500   70.4220   73.8370 S.3    41  MET41      -0.1393
      8  CE        35.6840   68.6890   73.3400 C.3    41  MET41       0.0692
      9  N         32.8870   61.3730   90.1090 N.3    53  LYS53      -0.1245
     10  CA        32.0120   60.5450   89.3180 C.3    53  LYS53       0.1561
     11  C         32.8810   60.1530   88.1420 C.2    53  LYS53       0.2260
     12  O         33.4750   61.0160   87.4970 O.2    53  LYS53      -0.2867
     13  CB        30.8100   61.3580   88.8450 C.3    53  LYS53       0.0271
     14  CG        29.9100   60.6420   87.8430 C.3    53  LYS53       0.0035
     15  CD        28.9350   61.6210   87.1860 C.3    53  LYS53       0.0206
     16  CE        28.2520   61.0240   85.9650 C.3    53  LYS53       0.1093
     17  NZ        27.4580   62.0550   85.2460 N.3    53  LYS53      -0.1314
     18  N         34.8780   59.1450   82.8920 N.3    56  TYR56      -0.1227
     19  CA        34.3590   58.8580   81.5640 C.3    56  TYR56       0.1736
     20  C         32.8530   59.0370   81.3980 C.2    56  TYR56       0.2595
     21  O         32.3730   59.1690   80.2690 O.2    56  TYR56      -0.2718
     22  CB        34.7790   57.4430   81.1260 C.3    56  TYR56       0.0548
     23  CG        34.5920   56.3730   82.1830 C.ar   56  TYR56      -0.0200
     24  CD1       33.3210   55.8990   82.5190 C.ar   56  TYR56      -0.0009
     25  CD2       35.6850   55.8650   82.8840 C.ar   56  TYR56      -0.0009
     26  CE1       33.1460   54.9440   83.5410 C.ar   56  TYR56       0.0417
     27  CE2       35.5270   54.9180   83.8990 C.ar   56  TYR56       0.0417
     28  CZ        34.2570   54.4630   84.2280 C.ar   56  TYR56       0.1957
     29  OH        34.0990   53.5560   85.2560 O.3    56  TYR56      -0.2866
     30  N         32.1030   59.0540   82.5020 N.am   57  GLU57      -0.1965
     31  CA        30.6440   59.2270   82.4120 C.3    57  GLU57       0.1733
     32  C         30.3290   60.6420   81.9890 C.2    57  GLU57       0.2616
     33  O         29.1850   60.9630   81.6770 O.2    57  GLU57      -0.2715
     34  CB        29.9300   58.9190   83.7450 C.3    57  GLU57       0.0429
     35  CG        29.4450   57.4650   83.8830 C.3    57  GLU57       0.1163
     36  CD        28.5100   57.2470   85.0610 C.2    57  GLU57       0.3649
     37  OE1       27.4040   57.8290   85.0470 O.co2  57  GLU57      -0.2457
     38  OE2       28.8770   56.4910   85.9900 O.co2  57  GLU57      -0.2457
     39  N         31.3600   61.4840   82.0070 N.am   58  GLN58      -0.1963
     40  CA        31.2610   62.8840   81.5980 C.3    58  GLN58       0.1733
     41  C         32.1060   62.9670   80.3230 C.2    58  GLN58       0.2616
     42  O         33.1460   62.3100   80.2250 O.2    58  GLN58      -0.2715
     43  CB        31.8490   63.8070   82.6780 C.3    58  GLN58       0.0408
     44  CG        31.1710   63.7640   84.0440 C.3    58  GLN58       0.0908
     45  CD        32.1370   64.0930   85.1780 C.2    58  GLN58       0.2608
     46  OE1       31.7290   64.3580   86.3060 O.2    58  GLN58      -0.2717
     47  NE2       33.4280   64.0610   84.8780 N.am   58  GLN58      -0.0878
     48  N         31.6660   63.7640   79.3560 N.am   59  GLY59      -0.1955
     49  CA        32.3970   63.8740   78.1090 C.3    59  GLY59       0.1869
     50  C         33.7860   64.4660   78.2140 C.2    59  GLY59       0.2309
     51  O         34.0340   65.5300   77.6600 O.2    59  GLY59      -0.2863
     52  N         24.9040   57.4220   68.5790 N.3   378  LEU378     -0.1245
     53  CA        25.3330   58.7390   68.0910 C.3   378  LEU378      0.1561
     54  C         24.8340   59.7070   69.1490 C.2   378  LEU378      0.2260
     55  O         25.6250   60.2610   69.9120 O.2   378  LEU378     -0.2867
     56  CB        24.7000   59.0530   66.7320 C.3   378  LEU378      0.0270
     57  CG        25.2510   60.2000   65.8800 C.3   378  LEU378      0.0019
     58  CD1       25.1130   61.4990   66.6000 C.3   378  LEU378      0.0001
     59  CD2       26.6930   59.9370   65.5480 C.3   378  LEU378      0.0001
     60  N         24.3200   60.3750   72.2480 N.3   380  SER380     -0.1217
     61  CA        24.8100   59.6160   73.3930 C.3   380  SER380      0.1889
     62  C         23.8110   58.8430   74.2960 C.2   380  SER380      0.2288
     63  O         23.2330   59.4010   75.2340 O.2   380  SER380     -0.2866
     64  CB        25.6610   60.5500   74.2410 C.3   380  SER380      0.2089
     65  OG        26.6450   61.1840   73.4400 O.3   380  SER380     -0.2183
     66  N         23.2070   57.1730   79.5290 N.3   392  ASN392     -0.1225
     67  CA        23.4340   57.8800   78.2740 C.3   392  ASN392      0.1785
     68  C         24.9020   58.0860   77.9720 C.2   392  ASN392      0.2597
     69  O         25.2560   58.8600   77.0850 O.2   392  ASN392     -0.2718
     70  CB        22.8010   59.2430   78.3430 C.3   392  ASN392      0.1169
     71  CG        23.4920   60.1290   79.3440 C.2   392  ASN392      0.2627
     72  OD1       23.2220   61.3270   79.4210 O.2   392  ASN392     -0.2716
     73  ND2       24.3980   59.5410   80.1280 N.am  392  ASN392     -0.0877
     74  N         25.7610   57.4200   78.7240 N.am  393  PHE393     -0.1962
     75  CA        27.1870   57.5620   78.5050 C.3   393  PHE393      0.1771
     76  C         27.6350   56.8790   77.2280 C.2   393  PHE393      0.2619
     77  O         27.0420   55.9030   76.7840 O.2   393  PHE393     -0.2715
     78  CB        27.9680   56.9780   79.6960 C.3   393  PHE393      0.0574
     79  CG        29.0300   55.9640   79.3080 C.ar  393  PHE393     -0.0200
     80  CD1       28.6790   54.6740   78.9280 C.ar  393  PHE393     -0.0042
     81  CD2       30.3780   56.3110   79.3200 C.ar  393  PHE393     -0.0042
     82  CE1       29.6530   53.7550   78.5690 C.ar  393  PHE393     -0.0003
     83  CE2       31.3540   55.3980   78.9620 C.ar  393  PHE393     -0.0003
     84  CZ        30.9930   54.1190   78.5860 C.ar  393  PHE393     -0.0000
     85  N         28.6710   57.4250   76.6220 N.am  394  VAL394     -0.1977
     86  CA        29.2400   56.8010   75.4610 C.3   394  VAL394      0.1596
     87  C         30.7170   56.9320   75.7430 C.2   394  VAL394      0.2287
     88  O         31.2160   58.0290   75.9520 O.2   394  VAL394     -0.2864
     89  CB        28.8580   57.5070   74.1710 C.3   394  VAL394      0.0276
     90  CG1       29.5060   56.8050   73.0080 C.3   394  VAL394      0.0022
     91  CG2       27.3620   57.4650   73.9890 C.3   394  VAL394      0.0022
     92  N         34.7310   57.2190   75.9730 N.3   396  PRO396     -0.2116
     93  CA        35.6850   58.1560   75.3750 C.3   396  PRO396      0.1372
     94  C         36.5010   57.3820   74.3520 C.2   396  PRO396      0.2244
     95  O         36.7390   57.8630   73.2410 O.2   396  PRO396     -0.2868
     96  CB        36.5370   58.5910   76.5620 C.3   396  PRO396      0.0268
     97  CG        35.6190   58.3520   77.7580 C.3   396  PRO396      0.0207
     98  CD        34.9940   57.0440   77.4090 C.3   396  PRO396      0.0892
     99  N         34.7750   57.2420   71.4310 N.3   399  TRP399     -0.1241
    100  CA        34.7980   58.5370   70.7700 C.3   399  TRP399      0.1605
    101  C         36.1210   58.8550   70.0690 C.2   399  TRP399      0.2264
    102  O         36.1210   59.3430   68.9330 O.2   399  TRP399     -0.2867
    103  CB        34.4230   59.6480   71.7620 C.3   399  TRP399      0.0550
    104  CG        32.9260   59.7260   72.0520 C.ar  399  TRP399      0.0003
    105  CD1       32.2900   59.3760   73.2120 C.ar  399  TRP399      0.0946
    106  CD2       31.8910   60.1520   71.1460 C.ar  399  TRP399      0.0152
    107  NE1       30.9300   59.5540   73.0870 N.ar  399  TRP399     -0.2442
    108  CE2       30.6590   60.0280   71.8310 C.ar  399  TRP399      0.0810
    109  CE3       31.8880   60.6290   69.8230 C.ar  399  TRP399      0.0012
    110  CZ2       29.4380   60.3580   71.2360 C.ar  399  TRP399      0.0191
    111  CZ3       30.6720   60.9590   69.2350 C.ar  399  TRP399      0.0001
    112  CH2       29.4650   60.8200   69.9420 C.ar  399  TRP399      0.0015
    113  N         36.5800   56.3010   66.8820 N.3   402  THR402     -0.1203
    114  CA        35.7970   56.7130   65.7300 C.3   402  THR402      0.1994
    115  C         36.3700   57.9560   65.0940 C.2   402  THR402      0.2618
    116  O         36.8820   57.9170   63.9760 O.2   402  THR402     -0.2717
    117  CB        34.3470   57.0240   66.1040 C.3   402  THR402      0.1784
    118  OG1       33.7430   57.7980   65.0590 O.3   402  THR402     -0.2211
    119  CG2       34.2900   57.7950   67.3960 C.3   402  THR402      0.0376
    120  N         36.2660   59.0610   65.8210 N.am  403  SER403     -0.1951
    121  CA        36.7480   60.3540   65.3680 C.3   403  SER403      0.1924
    122  C         37.9530   60.2680   64.4520 C.2   403  SER403      0.2314
    123  O         37.8430   60.4170   63.2320 O.2   403  SER403     -0.2863
    124  CB        37.0810   61.2190   66.5810 C.3   403  SER403      0.2116
    125  OG        37.9370   60.5290   67.4720 O.3   403  SER403     -0.2180
    126  N         37.7500   58.5570   60.9320 N.3   406  VAL406     -0.1231
    127  CA        37.1650   59.3570   59.8660 C.3   406  VAL406      0.1692
    128  C         38.1930   60.3120   59.3100 C.2   406  VAL406      0.2591
    129  O         38.3090   60.4920   58.0980 O.2   406  VAL406     -0.2718
    130  CB        35.9940   60.1770   60.3640 C.3   406  VAL406      0.0266
    131  CG1       35.5550   61.1420   59.2900 C.3   406  VAL406      0.0020
    132  CG2       34.8590   59.2520   60.7440 C.3   406  VAL406      0.0020
    133  N         38.9540   60.9120   60.2120 N.am  407  LEU407     -0.1980
    134  CA        39.9690   61.8680   59.8110 C.3   407  LEU407      0.1596
    135  C         41.1440   61.1680   59.1120 C.2   407  LEU407      0.2287
    136  O         41.3960   61.3980   57.9260 O.2   407  LEU407     -0.2864
    137  CB        40.4450   62.6660   61.0430 C.3   407  LEU407      0.0297
    138  CG        39.4290   63.2210   62.0670 C.3   407  LEU407      0.0022
    139  CD1       40.0160   64.4720   62.7070 C.3   407  LEU407      0.0001
    140  CD2       38.0970   63.5660   61.4180 C.3   407  LEU407      0.0001
@<TRIPOS>BOND
     1   136   135    2
     2   129   128    2
     3   135   134    1
     4   131   130    1
     5   128   127    1
     6   128   133   am
     7   134   133    1
     8   134   137    1
     9   127   130    1
    10   127   126    1
    11   130   132    1
    12   137   138    1
    13   140   138    1
    14   138   139    1
    15   123   122    2
    16   116   115    2
    17   122   121    1
    18   118   117    1
    19   115   114    1
    20   115   120   am
    21   121   120    1
    22   121   124    1
    23    59    57    1
    24   114   117    1
    25   114   113    1
    26    57    58    1
    27    57    56    1
    28   117   119    1
    29   124   125    1
    30    56    53    1
    31    53    52    1
    32    53    54    1
    33   102   101    2
    34    54    55    2
    35   111   109   ar
    36   111   112   ar
    37   109   106   ar
    38   112   110   ar
    39   101   100    1
    40   100    99    1
    41   100   103    1
    42   106   108   ar
    43   106   104   ar
    44   110   108   ar
    45   103   104    1
    46   108   107   ar
    47   104   105   ar
    48    60    61    1
    49    90    89    1
    50   107   105   ar
    51    95    94    2
    52     8     7    1
    53    61    64    1
    54    61    62    1
    55    65    64    1
    56     7     6    1
    57    91    89    1
    58    89    86    1
    59    62    63    2
    60    94    93    1
    61     5     6    1
    62     5     2    1
    63     1     2    1
    64    93    92    1
    65    93    96    1
    66    86    87    1
    67    86    85    1
    68     2     3    1
    69    87    88    2
    70    92    98    1
    71    96    97    1
    72    85    76   am
    73    77    76    2
    74     3     4    2
    75    69    68    2
    76    76    75    1
    77    98    97    1
    78    51    50    2
    79    68    67    1
    80    68    74   am
    81    49    50    1
    82    49    48    1
    83    67    70    1
    84    67    66    1
    85    70    71    1
    86    75    74    1
    87    75    78    1
    88    82    84   ar
    89    82    80   ar
    90    84    83   ar
    91    80    79   ar
    92    83    81   ar
    93    79    81   ar
    94    79    78    1
    95    71    72    2
    96    71    73   am
    97    48    41   am
    98    42    41    2
    99    21    20    2
   100    41    40    1
   101    22    19    1
   102    22    23    1
   103    20    19    1
   104    20    30   am
   105    19    18    1
   106    40    39    1
   107    40    43    1
   108    33    32    2
   109    32    39   am
   110    32    31    1
   111    23    24   ar
   112    23    25   ar
   113    31    30    1
   114    31    34    1
   115    24    26   ar
   116    43    44    1
   117    25    27   ar
   118    26    28   ar
   119    34    35    1
   120    35    36    1
   121    27    28   ar
   122    44    45    1
   123    28    29    1
   124    47    45   am
   125    37    36   ar
   126    36    38   ar
   127    45    46    2
   128    17    16    1
   129    16    15    1
   130    15    14    1
   131    12    11    2
   132    14    13    1
   133    11    10    1
   134    13    10    1
   135    10     9    1
