@<TRIPOS>MOLECULE
tmp/3a0bU13.pdb
 158 155 0 0 0
SMALL
GASTEIGER

@<TRIPOS>ATOM
      1  N         23.6780   -3.4060   -4.5320 N.3   202  PHE202     -0.1241
      2  CA        23.6110   -2.6950   -5.8010 C.3   202  PHE202      0.1605
      3  C         23.4670   -1.1780   -5.7800 C.2   202  PHE202      0.2264
      4  O         24.1400   -0.4840   -6.5350 O.2   202  PHE202     -0.2867
      5  CB        22.5050   -3.3050   -6.6600 C.3   202  PHE202      0.0534
      6  CG        22.8330   -4.6870   -7.1760 C.ar  202  PHE202     -0.0203
      7  CD1       22.1300   -5.2280   -8.2520 C.ar  202  PHE202     -0.0042
      8  CD2       23.8660   -5.4380   -6.6100 C.ar  202  PHE202     -0.0042
      9  CE1       22.4530   -6.4940   -8.7630 C.ar  202  PHE202     -0.0003
     10  CE2       24.1960   -6.7060   -7.1130 C.ar  202  PHE202     -0.0003
     11  CZ        23.4870   -7.2310   -8.1930 C.ar  202  PHE202     -0.0000
     12  N         26.6970    0.2320   -5.7240 N.3   205  MET205     -0.1230
     13  CA        27.5520    0.3590   -6.9020 C.3   205  MET205      0.1702
     14  C         27.1580    1.5390   -7.7630 C.2   205  MET205      0.2592
     15  O         27.9200    2.4910   -7.8650 O.2   205  MET205     -0.2718
     16  CB        27.4990   -0.9000   -7.7600 C.3   205  MET205      0.0401
     17  CG        27.7050   -2.1530   -6.9950 C.3   205  MET205      0.0596
     18  SD        29.3260   -2.8150   -7.1930 S.3   205  MET205     -0.1393
     19  CE        29.0070   -4.2730   -6.3620 C.3   205  MET205      0.0692
     20  N         25.9450    1.5630   -8.2950 N.am  206  HIS206     -0.1976
     21  CA        25.6490    2.5870   -9.2780 C.3   206  HIS206      0.1656
     22  C         25.9570    3.8870   -8.5760 C.2   206  HIS206      0.2291
     23  O         26.4440    4.8240   -9.1990 O.2   206  HIS206     -0.2864
     24  CB        24.1990    2.5390   -9.7780 C.3   206  HIS206      0.0771
     25  CG        23.8010    3.7250  -10.6100 C.ar  206  HIS206      0.0820
     26  ND1       24.6780    4.7350  -10.9420 N.ar  206  HIS206     -0.2267
     27  CD2       22.6230    4.0490  -11.1950 C.ar  206  HIS206      0.1154
     28  CE1       24.0530    5.6390  -11.6740 C.ar  206  HIS206      0.1986
     29  NE2       22.8050    5.2450  -11.8460 N.ar  206  HIS206     -0.2212
     30  N         30.2780    3.6540   -8.4900 N.3   209  LEU209     -0.1231
     31  CA        30.8160    3.9050   -9.8220 C.3   209  LEU209      0.1693
     32  C         30.4320    5.2460  -10.4130 C.2   209  LEU209      0.2591
     33  O         31.2590    5.8930  -11.0450 O.2   209  LEU209     -0.2718
     34  CB        30.4120    2.7760  -10.7830 C.3   209  LEU209      0.0284
     35  CG        30.7740    1.3410  -10.3400 C.3   209  LEU209      0.0019
     36  CD1       30.4810    0.3700  -11.4740 C.3   209  LEU209      0.0001
     37  CD2       32.2480    1.2570   -9.9350 C.3   209  LEU209      0.0001
     38  N         29.1830    5.6740  -10.2210 N.am  210  VAL210     -0.1980
     39  CA        28.7000    6.9470  -10.7840 C.3   210  VAL210      0.1595
     40  C         29.3800    8.2270  -10.2630 C.2   210  VAL210      0.2287
     41  O         29.7230    9.1150  -11.0430 O.2   210  VAL210     -0.2864
     42  CB        27.1750    7.0930  -10.6020 C.3   210  VAL210      0.0276
     43  CG1       26.8120    7.0690   -9.1250 C.3   210  VAL210      0.0022
     44  CG2       26.6830    8.3740  -11.2580 C.3   210  VAL210      0.0022
     45  N         28.5010   12.6420  -15.4900 N.3   237  TYR237     -0.1241
     46  CA        29.3500   11.4530  -15.3420 C.3   237  TYR237      0.1605
     47  C         29.6050   10.6840  -16.6400 C.2   237  TYR237      0.2264
     48  O         28.6960   10.4620  -17.4490 O.2   237  TYR237     -0.2867
     49  CB        28.7630   10.4950  -14.2930 C.3   237  TYR237      0.0534
     50  CG        27.6260    9.5960  -14.7580 C.ar  237  TYR237     -0.0201
     51  CD1       26.3180   10.0820  -14.9140 C.ar  237  TYR237     -0.0009
     52  CD2       27.8430    8.2340  -14.9610 C.ar  237  TYR237     -0.0009
     53  CE1       25.2480    9.2150  -15.2530 C.ar  237  TYR237      0.0417
     54  CE2       26.7880    7.3650  -15.2990 C.ar  237  TYR237      0.0417
     55  CZ        25.4970    7.8550  -15.4400 C.ar  237  TYR237      0.1957
     56  OH        24.4730    6.9790  -15.7480 O.3   237  TYR237     -0.2866
     57  N         30.3840    7.4490  -18.9410 N.3   239  ILE239     -0.1245
     58  CA        29.9070    6.0570  -18.9370 C.3   239  ILE239      0.1561
     59  C         30.9440    4.9570  -19.1810 C.2   239  ILE239      0.2260
     60  O         31.1120    4.0440  -18.3660 O.2   239  ILE239     -0.2867
     61  CB        28.7870    5.8670  -19.9740 C.3   239  ILE239      0.0252
     62  CG1       27.6300    6.8280  -19.6730 C.3   239  ILE239      0.0019
     63  CG2       28.3210    4.4010  -19.9660 C.3   239  ILE239      0.0019
     64  CD1       26.8400    6.4730  -18.4140 C.3   239  ILE239      0.0001
     65  N         33.3930    4.9750  -16.7920 N.3   242  ALA242     -0.1231
     66  CA        32.9570    4.2520  -15.6100 C.3   242  ALA242      0.1694
     67  C         33.1750    2.7600  -15.8420 C.2   242  ALA242      0.2592
     68  O         34.0640    2.1540  -15.2370 O.2   242  ALA242     -0.2718
     69  CB        31.4880    4.5330  -15.3420 C.3   242  ALA242      0.0304
     70  N         32.3720    2.1800  -16.7330 N.am  243  HIS243     -0.1976
     71  CA        32.4800    0.7600  -17.0380 C.3   243  HIS243      0.1656
     72  C         33.9420    0.3470  -17.1020 C.2   243  HIS243      0.2291
     73  O         34.3240   -0.7070  -16.5970 O.2   243  HIS243     -0.2864
     74  CB        31.8260    0.4390  -18.3780 C.3   243  HIS243      0.0771
     75  CG        32.1310   -0.9430  -18.8640 C.ar  243  HIS243      0.0820
     76  ND1       33.4190   -1.4260  -18.9690 N.ar  243  HIS243     -0.2267
     77  CD2       31.3180   -1.9640  -19.2210 C.ar  243  HIS243      0.1154
     78  CE1       33.3860   -2.6860  -19.3630 C.ar  243  HIS243      0.1986
     79  NE2       32.1230   -3.0370  -19.5230 N.ar  243  HIS243     -0.2212
     80  N         34.8330   -1.2400  -13.5950 N.3   246  PHE246     -0.1241
     81  CA        34.2090   -2.5010  -13.2430 C.3   246  PHE246      0.1605
     82  C         34.5620   -3.5660  -14.2580 C.2   246  PHE246      0.2264
     83  O         34.9480   -4.6720  -13.8950 O.2   246  PHE246     -0.2867
     84  CB        32.6940   -2.3350  -13.1540 C.3   246  PHE246      0.0534
     85  CG        32.0180   -3.4210  -12.3770 C.ar  246  PHE246     -0.0203
     86  CD1       32.7010   -4.0990  -11.3630 C.ar  246  PHE246     -0.0042
     87  CD2       30.6950   -3.7500  -12.6260 C.ar  246  PHE246     -0.0042
     88  CE1       32.0750   -5.0920  -10.6090 C.ar  246  PHE246     -0.0003
     89  CE2       30.0580   -4.7430  -11.8740 C.ar  246  PHE246     -0.0003
     90  CZ        30.7520   -5.4140  -10.8640 C.ar  246  PHE246     -0.0000
     91  N         35.7090   -7.0040  -12.5230 N.3   250  ILE250     -0.1231
     92  CA        35.3140   -8.3470  -12.8800 C.3   250  ILE250      0.1692
     93  C         35.4680   -8.3460  -14.3930 C.2   250  ILE250      0.2592
     94  O         34.9940   -7.4180  -15.0490 O.2   250  ILE250     -0.2718
     95  CB        33.8560   -8.6480  -12.4800 C.3   250  ILE250      0.0266
     96  CG1       33.8060   -9.0210  -10.9970 C.3   250  ILE250      0.0019
     97  CG2       33.3030   -9.7910  -13.3250 C.3   250  ILE250      0.0020
     98  CD1       34.7790  -10.1470  -10.6180 C.3   250  ILE250      0.0001
     99  N         36.1440   -9.3650  -14.9290 N.am  251  PHE251     -0.1976
    100  CA        36.3910   -9.4690  -16.3630 C.3   251  PHE251      0.1639
    101  C         35.3060   -8.7650  -17.1500 C.2   251  PHE251      0.2290
    102  O         34.1370   -8.7660  -16.7550 O.2   251  PHE251     -0.2864
    103  CB        36.5140  -10.9410  -16.7990 C.3   251  PHE251      0.0560
    104  CG        35.3610  -11.8050  -16.3800 C.ar  251  PHE251     -0.0200
    105  CD1       34.0590  -11.4870  -16.7540 C.ar  251  PHE251     -0.0042
    106  CD2       35.5790  -12.9410  -15.6110 C.ar  251  PHE251     -0.0042
    107  CE1       32.9930  -12.2790  -16.3730 C.ar  251  PHE251     -0.0003
    108  CE2       34.5180  -13.7440  -15.2230 C.ar  251  PHE251     -0.0003
    109  CZ        33.2190  -13.4110  -15.6050 C.ar  251  PHE251     -0.0000
    110  N         31.1480   -8.5870  -18.1430 N.3   254  ALA254     -0.1231
    111  CA        30.4650   -8.6540  -16.8470 C.3   254  ALA254      0.1694
    112  C         30.0280   -7.2890  -16.3330 C.2   254  ALA254      0.2593
    113  O         29.1300   -7.2000  -15.4950 O.2   254  ALA254     -0.2718
    114  CB        31.3650   -9.3270  -15.8240 C.3   254  ALA254      0.0304
    115  N         30.6800   -6.2360  -16.8290 N.am  255  SER255     -0.1938
    116  CA        30.3690   -4.8490  -16.4640 C.3   255  SER255      0.2055
    117  C         29.4280   -4.3330  -17.5540 C.2   255  SER255      0.2643
    118  O         29.5070   -4.7980  -18.6900 O.2   255  SER255     -0.2714
    119  CB        31.6500   -4.0040  -16.4340 C.3   255  SER255      0.2130
    120  OG        31.3940   -2.6700  -16.0180 O.3   255  SER255     -0.2179
    121  N         28.5430   -3.3890  -17.2300 N.am  256  PHE256     -0.1973
    122  CA        27.6070   -2.8880  -18.2400 C.3   256  PHE256      0.1639
    123  C         28.1480   -1.8820  -19.2510 C.2   256  PHE256      0.2290
    124  O         28.7180   -0.8390  -18.9100 O.2   256  PHE256     -0.2864
    125  CB        26.3350   -2.3170  -17.5910 C.3   256  PHE256      0.0560
    126  CG        25.3350   -3.3670  -17.1810 C.ar  256  PHE256     -0.0200
    127  CD1       24.0140   -3.0240  -16.9250 C.ar  256  PHE256     -0.0042
    128  CD2       25.7200   -4.6930  -17.0310 C.ar  256  PHE256     -0.0042
    129  CE1       23.0930   -3.9820  -16.5240 C.ar  256  PHE256     -0.0003
    130  CE2       24.8090   -5.6580  -16.6310 C.ar  256  PHE256     -0.0003
    131  CZ        23.4920   -5.3010  -16.3770 C.ar  256  PHE256     -0.0000
    132  N         22.1320   -0.7220  -17.8160 N.3   262  LEU262     -0.1245
    133  CA        22.3870   -0.0930  -16.5270 C.3   262  LEU262      0.1561
    134  C         21.1110    0.5510  -15.9940 C.2   262  LEU262      0.2260
    135  O         20.2550    0.9890  -16.7610 O.2   262  LEU262     -0.2867
    136  CB        23.4950    0.9540  -16.6500 C.3   262  LEU262      0.0270
    137  CG        24.3860    1.1450  -15.4200 C.3   262  LEU262      0.0019
    138  CD1       24.4870    2.6180  -15.0530 C.3   262  LEU262      0.0001
    139  CD2       23.8640    0.3310  -14.2460 C.3   262  LEU262      0.0001
    140  N         17.3010   -2.2590  -14.8400 N.3   265  PHE265     -0.1227
    141  CA        17.5390   -3.4940  -14.1430 C.3   265  PHE265      0.1736
    142  C         17.6120   -3.0830  -12.6950 C.2   265  PHE265      0.2595
    143  O         17.0190   -3.7100  -11.8230 O.2   265  PHE265     -0.2718
    144  CB        18.8650   -4.0710  -14.6110 C.3   265  PHE265      0.0547
    145  CG        19.5190   -4.9760  -13.6230 C.ar  265  PHE265     -0.0202
    146  CD1       18.9460   -6.1820  -13.2850 C.ar  265  PHE265     -0.0042
    147  CD2       20.7270   -4.6350  -13.0560 C.ar  265  PHE265     -0.0042
    148  CE1       19.5580   -7.0210  -12.3880 C.ar  265  PHE265     -0.0003
    149  CE2       21.3410   -5.4700  -12.1630 C.ar  265  PHE265     -0.0003
    150  CZ        20.7560   -6.6640  -11.8260 C.ar  265  PHE265     -0.0000
    151  N         18.3210   -1.9880  -12.4540 N.am  266  LEU266     -0.1980
    152  CA        18.3730   -1.4000  -11.1310 C.3   266  LEU266      0.1596
    153  C         17.0010   -1.5000  -10.4880 C.2   266  LEU266      0.2287
    154  O         16.8630   -1.3730   -9.2750 O.2   266  LEU266     -0.2864
    155  CB        18.8210    0.0580  -11.2030 C.3   266  LEU266      0.0297
    156  CG        20.2800    0.2870  -11.5910 C.3   266  LEU266      0.0022
    157  CD1       20.7730    1.5870  -10.9810 C.3   266  LEU266      0.0001
    158  CD2       21.1410   -0.8760  -11.1310 C.3   266  LEU266      0.0001
@<TRIPOS>BOND
     1    61    63    1
     2    61    62    1
     3    61    58    1
     4    62    64    1
     5    79    78   ar
     6    79    77   ar
     7    78    76   ar
     8   123   124    2
     9   123   122    1
    10    77    75   ar
    11    59    58    1
    12    59    60    2
    13    76    75   ar
    14    57    58    1
    15    75    74    1
    16   118   117    2
    17    74    71    1
    18   122   125    1
    19   122   121    1
    20   110   111    1
    21   132   133    1
    22   125   126    1
    23   117   121   am
    24   117   116    1
    25    48    47    2
    26   126   128   ar
    27   126   127   ar
    28   101   102    2
    29   101   100    1
    30    72    71    1
    31    72    73    2
    32    71    70    1
    33   128   130   ar
    34   127   129   ar
    35   111   112    1
    36   111   114    1
    37   115   116    1
    38   115   112   am
    39   103   104    1
    40   103   100    1
    41    65    66    1
    42   135   134    2
    43   105   104   ar
    44   105   107   ar
    45    70    67   am
    46   136   133    1
    47   136   137    1
    48    47    46    1
    49   130   131   ar
    50   133   134    1
    51   129   131   ar
    52   116   119    1
    53   119   120    1
    54   104   106   ar
    55   107   109   ar
    56   100    99    1
    57   112   113    2
    58    67    66    1
    59    67    68    2
    60    56    55    1
    61   106   108   ar
    62    66    69    1
    63   109   108   ar
    64    45    46    1
    65    55    54   ar
    66    55    53   ar
    67   137   138    1
    68   137   139    1
    69    46    49    1
    70    54    52   ar
    71    53    51   ar
    72    94    93    2
    73    52    50   ar
    74    99    93   am
    75    51    50   ar
    76   140   141    1
    77    50    49    1
    78   144   141    1
    79   144   145    1
    80    93    92    1
    81    82    83    2
    82    82    81    1
    83   141   142    1
    84   145   146   ar
    85   145   147   ar
    86    80    81    1
    87    97    95    1
    88   146   148   ar
    89    81    84    1
    90    84    85    1
    91   147   149   ar
    92    92    91    1
    93    92    95    1
    94   142   151   am
    95   142   143    2
    96    87    85   ar
    97    87    89   ar
    98    95    96    1
    99   151   152    1
   100   148   150   ar
   101    85    86   ar
   102   149   150   ar
   103    89    90   ar
   104    29    28   ar
   105    29    27   ar
   106    28    26   ar
   107   156   155    1
   108   156   158    1
   109   156   157    1
   110    36    35    1
   111    86    88   ar
   112    44    42    1
   113   155   152    1
   114    27    25   ar
   115   152   153    1
   116    33    32    2
   117    41    40    2
   118    96    98    1
   119    26    25   ar
   120    90    88   ar
   121    39    42    1
   122    39    40    1
   123    39    38    1
   124    34    35    1
   125    34    31    1
   126    25    24    1
   127    42    43    1
   128   153   154    2
   129    32    38   am
   130    32    31    1
   131    35    37    1
   132    31    30    1
   133    24    21    1
   134    21    22    1
   135    21    20    1
   136    23    22    2
   137     9     7   ar
   138     9    11   ar
   139    20    14   am
   140     7     6   ar
   141    11    10   ar
   142    15    14    2
   143    14    13    1
   144    16    17    1
   145    16    13    1
   146    18    17    1
   147    18    19    1
   148     6     5    1
   149     6     8   ar
   150    10     8   ar
   151    13    12    1
   152     5     2    1
   153     4     3    2
   154     2     3    1
   155     2     1    1
