@<TRIPOS>MOLECULE
tmp/3a0bD17.pdb
 215 205 0 0 0
SMALL
GASTEIGER

@<TRIPOS>ATOM
      1  N         17.4020   41.2830   44.0500 N.3   186  MET186     -0.1230
      2  CA        18.8600   41.1650   43.9280 C.3   186  MET186      0.1702
      3  C         19.3630   41.7710   42.6460 C.2   186  MET186      0.2592
      4  O         20.5600   41.7920   42.3980 O.2   186  MET186     -0.2718
      5  CB        19.3130   39.7110   43.9620 C.3   186  MET186      0.0401
      6  CG        19.1290   39.0650   45.2920 C.3   186  MET186      0.0596
      7  SD        19.6520   37.4020   45.2230 S.3   186  MET186     -0.1393
      8  CE        18.6810   36.8770   43.9480 C.3   186  MET186      0.0692
      9  N         18.4350   42.2380   41.8210 N.am  187  MET187     -0.1979
     10  CA        18.7710   42.8780   40.5550 C.3   187  MET187      0.1605
     11  C         18.5580   44.3510   40.7800 C.2   187  MET187      0.2287
     12  O         19.3580   45.1730   40.3610 O.2   187  MET187     -0.2864
     13  CB        17.8420   42.4290   39.4320 C.3   187  MET187      0.0413
     14  CG        17.8440   40.9350   39.1800 C.3   187  MET187      0.0598
     15  SD        16.8660   40.4470   37.7370 S.3   187  MET187     -0.1393
     16  CE        15.7110   39.2490   38.4930 C.3   187  MET187      0.0692
     17  N         21.3820   45.2930   41.6980 N.3   190  ALA190     -0.1231
     18  CA        22.2920   45.3620   40.5790 C.3   190  ALA190      0.1694
     19  C         22.1720   46.7290   39.9210 C.2   190  ALA190      0.2592
     20  O         23.1700   47.3890   39.6950 O.2   190  ALA190     -0.2718
     21  CB        21.9700   44.2300   39.5750 C.3   190  ALA190      0.0304
     22  N         20.9540   47.1610   39.6320 N.am  191  GLY191     -0.1957
     23  CA        20.7920   48.4510   39.0070 C.3   191  GLY191      0.1869
     24  C         21.2920   49.5650   39.9110 C.2   191  GLY191      0.2309
     25  O         22.3180   50.1840   39.6260 O.2   191  GLY191     -0.2863
     26  N         25.3720   49.4450   40.1990 N.3   194  GLY194     -0.1225
     27  CA        26.0800   49.7660   38.9680 C.3   194  GLY194      0.1811
     28  C         25.7800   51.1520   38.4390 C.2   194  GLY194      0.2280
     29  O         26.6960   51.8880   38.0730 O.2   194  GLY194     -0.2866
     30  N         27.7070   53.1570   40.1140 N.3   197  LEU197     -0.1231
     31  CA        29.0880   52.9430   39.7400 C.3   197  LEU197      0.1693
     32  C         29.3330   53.7140   38.4750 C.2   197  LEU197      0.2591
     33  O         30.3170   54.4390   38.3570 O.2   197  LEU197     -0.2718
     34  CB        29.3960   51.4760   39.4950 C.3   197  LEU197      0.0284
     35  CG        30.9100   51.4020   39.3960 C.3   197  LEU197      0.0019
     36  CD1       31.3630   50.0250   39.7800 C.3   197  LEU197      0.0001
     37  CD2       31.3650   51.8070   38.0110 C.3   197  LEU197      0.0001
     38  N         28.4380   53.5530   37.5130 N.am  198  LEU198     -0.1980
     39  CA        28.5970   54.2860   36.2790 C.3   198  LEU198      0.1596
     40  C         28.6560   55.7790   36.6130 C.2   198  LEU198      0.2287
     41  O         29.6840   56.4240   36.3940 O.2   198  LEU198     -0.2864
     42  CB        27.4480   53.9820   35.3160 C.3   198  LEU198      0.0297
     43  CG        27.4090   52.5500   34.7870 C.3   198  LEU198      0.0022
     44  CD1       26.4720   52.5010   33.5960 C.3   198  LEU198      0.0001
     45  CD2       28.8080   52.0750   34.3820 C.3   198  LEU198      0.0001
     46  N         32.0180   56.0850   37.7330 N.3   201  ILE201     -0.1231
     47  CA        33.1040   55.6210   36.9110 C.3   201  ILE201      0.1692
     48  C         33.2530   56.6790   35.8370 C.2   201  ILE201      0.2592
     49  O         34.3250   57.2250   35.6620 O.2   201  ILE201     -0.2718
     50  CB        32.8000   54.2630   36.2690 C.3   201  ILE201      0.0266
     51  CG1       33.7150   54.0160   35.0750 C.3   201  ILE201      0.0019
     52  CG2       31.4340   54.2590   35.7200 C.3   201  ILE201      0.0020
     53  CD1       35.1590   54.3490   35.3110 C.3   201  ILE201      0.0001
     54  N         32.1620   57.0040   35.1550 N.am  202  HIS202     -0.1976
     55  CA        32.1920   58.0030   34.0890 C.3   202  HIS202      0.1656
     56  C         32.4040   59.4060   34.6230 C.2   202  HIS202      0.2291
     57  O         33.1280   60.1920   34.0270 O.2   202  HIS202     -0.2864
     58  CB        30.8810   57.9650   33.2980 C.3   202  HIS202      0.0771
     59  CG        30.7690   59.0130   32.2280 C.ar  202  HIS202      0.0820
     60  ND1       31.5550   59.0120   31.0960 N.ar  202  HIS202     -0.2267
     61  CD2       29.9270   60.0670   32.0980 C.ar  202  HIS202      0.1154
     62  CE1       31.1990   60.0180   30.3150 C.ar  202  HIS202      0.1986
     63  NE2       30.2140   60.6730   30.9000 N.ar  202  HIS202     -0.2212
     64  N         35.6620   59.7350   35.4010 N.3   205  THR205     -0.1218
     65  CA        36.3860   59.1930   34.2680 C.3   205  THR205      0.1862
     66  C         36.5540   60.4080   33.3820 C.2   205  THR205      0.2287
     67  O         37.4950   60.4870   32.6100 O.2   205  THR205     -0.2866
     68  CB        35.5840   58.1130   33.5180 C.3   205  THR205      0.1770
     69  OG1       36.4700   57.0690   33.1080 O.3   205  THR205     -0.2211
     70  CG2       34.9070   58.6880   32.2900 C.3   205  THR205      0.0375
     71  N         40.1050   63.1010   32.2140 N.3   209  THR209     -0.1218
     72  CA        40.4300   62.7790   30.8210 C.3   209  THR209      0.1862
     73  C         40.6310   64.0440   29.9850 C.2   209  THR209      0.2287
     74  O         41.6330   64.1780   29.2790 O.2   209  THR209     -0.2866
     75  CB        39.3090   61.9390   30.1500 C.3   209  THR209      0.1770
     76  OG1       39.4350   62.0000   28.7210 O.3   209  THR209     -0.2211
     77  CG2       37.9480   62.4560   30.5500 C.3   209  THR209      0.0375
     78  N         36.7510   65.6560   26.7590 N.3   232  TYR232     -0.1241
     79  CA        37.5060   64.4250   27.0290 C.3   232  TYR232      0.1605
     80  C         37.7770   63.5820   25.7940 C.2   232  TYR232      0.2264
     81  O         36.8540   63.2280   25.0790 O.2   232  TYR232     -0.2867
     82  CB        36.7730   63.5480   28.0610 C.3   232  TYR232      0.0534
     83  CG        35.2990   63.2310   27.7880 C.ar  232  TYR232     -0.0201
     84  CD1       34.2820   63.8600   28.5140 C.ar  232  TYR232     -0.0009
     85  CD2       34.9180   62.2930   26.8200 C.ar  232  TYR232     -0.0009
     86  CE1       32.9220   63.5640   28.2850 C.ar  232  TYR232      0.0417
     87  CE2       33.5540   61.9920   26.5820 C.ar  232  TYR232      0.0417
     88  CZ        32.5680   62.6340   27.3200 C.ar  232  TYR232      0.1957
     89  OH        31.2360   62.3640   27.0900 O.3   232  TYR232     -0.2866
     90  N         37.8740   60.5260   24.1180 N.3   234  MET234     -0.1245
     91  CA        37.4050   59.1780   24.3590 C.3   234  MET234      0.1570
     92  C         38.3800   58.1060   23.8920 C.2   234  MET234      0.2261
     93  O         38.0830   56.9190   23.9540 O.2   234  MET234     -0.2867
     94  CB        36.0270   58.9950   23.7150 C.3   234  MET234      0.0387
     95  CG        34.9280   59.7620   24.4500 C.3   234  MET234      0.0595
     96  SD        33.2240   59.3320   24.0280 S.3   234  MET234     -0.1393
     97  CE        33.4740   57.7630   23.3080 C.3   234  MET234      0.0692
     98  N         41.3520   58.1020   27.0640 N.3   237  ALA237     -0.1231
     99  CA        40.7790   57.5270   28.2620 C.3   237  ALA237      0.1694
    100  C         40.5970   56.0410   27.9980 C.2   237  ALA237      0.2592
    101  O         40.8680   55.2020   28.8590 O.2   237  ALA237     -0.2718
    102  CB        39.4470   58.1780   28.5630 C.3   237  ALA237      0.0304
    103  N         40.1350   55.7280   26.7930 N.am  238  ASN238     -0.1974
    104  CA        39.9100   54.3470   26.3740 C.3   238  ASN238      0.1688
    105  C         41.0390   53.4220   26.7950 C.2   238  ASN238      0.2292
    106  O         40.8770   52.5820   27.6900 O.2   238  ASN238     -0.2864
    107  CB        39.7440   54.2880   24.8530 C.3   238  ASN238      0.1181
    108  CG        39.9640   52.9040   24.2970 C.2   238  ASN238      0.2629
    109  OD1       41.1010   52.4390   24.1600 O.2   238  ASN238     -0.2716
    110  ND2       38.8710   52.2280   23.9770 N.am  238  ASN238     -0.0877
    111  N         41.5530   52.1840   30.4310 N.3   241  TRP241     -0.1241
    112  CA        40.8540   51.0680   31.0320 C.3   241  TRP241      0.1605
    113  C         41.1270   49.7830   30.2920 C.2   241  TRP241      0.2264
    114  O         41.3220   48.7400   30.9040 O.2   241  TRP241     -0.2867
    115  CB        39.3630   51.3710   31.1080 C.3   241  TRP241      0.0550
    116  CG        39.1690   52.6210   31.8530 C.ar  241  TRP241      0.0003
    117  CD1       39.5080   53.8570   31.4250 C.ar  241  TRP241      0.0946
    118  CD2       38.7570   52.7680   33.2190 C.ar  241  TRP241      0.0152
    119  NE1       39.3520   54.7680   32.4300 N.ar  241  TRP241     -0.2442
    120  CE2       38.8920   54.1300   33.5460 C.ar  241  TRP241      0.0810
    121  CE3       38.2990   51.8850   34.1980 C.ar  241  TRP241      0.0012
    122  CZ2       38.5860   54.6390   34.8090 C.ar  241  TRP241      0.0191
    123  CZ3       37.9970   52.3950   35.4580 C.ar  241  TRP241      0.0001
    124  CH2       38.1450   53.7590   35.7490 C.ar  241  TRP241      0.0015
    125  N         41.4200   47.7150   33.6620 N.3   245  PHE245     -0.1241
    126  CA        40.3200   46.8010   33.9380 C.3   245  PHE245      0.1605
    127  C         40.0470   45.9220   32.7080 C.2   245  PHE245      0.2264
    128  O         39.0480   45.2130   32.6400 O.2   245  PHE245     -0.2867
    129  CB        39.0790   47.6100   34.3790 C.3   245  PHE245      0.0534
    130  CG        37.7600   46.8810   34.2330 C.ar  245  PHE245     -0.0203
    131  CD1       37.0420   46.9480   33.0390 C.ar  245  PHE245     -0.0042
    132  CD2       37.2370   46.1330   35.2810 C.ar  245  PHE245     -0.0042
    133  CE1       35.8300   46.2820   32.8940 C.ar  245  PHE245     -0.0003
    134  CE2       36.0230   45.4630   35.1380 C.ar  245  PHE245     -0.0003
    135  CZ        35.3220   45.5390   33.9450 C.ar  245  PHE245     -0.0000
    136  N         38.7090   46.0610   29.7080 N.3   247  ILE247     -0.1231
    137  CA        37.8330   46.5430   28.6520 C.3   247  ILE247      0.1692
    138  C         37.2480   47.9230   28.9330 C.2   247  ILE247      0.2592
    139  O         36.8390   48.2300   30.0510 O.2   247  ILE247     -0.2718
    140  CB        36.6920   45.5490   28.4000 C.3   247  ILE247      0.0266
    141  CG1       37.2390   44.1380   28.4870 C.3   247  ILE247      0.0019
    142  CG2       36.0960   45.7510   27.0070 C.3   247  ILE247      0.0020
    143  CD1       38.2570   43.8480   27.4570 C.3   247  ILE247      0.0001
    144  N         37.2280   48.7500   27.8930 N.am  248  ALA248     -0.1966
    145  CA        36.7100   50.1030   27.9700 C.3   248  ALA248      0.1728
    146  C         35.6540   50.3280   26.8890 C.2   248  ALA248      0.2616
    147  O         35.2710   49.4080   26.1580 O.2   248  ALA248     -0.2715
    148  CB        37.8500   51.1000   27.8200 C.3   248  ALA248      0.0334
    149  N         35.1930   51.5670   26.7950 N.am  249  PHE249     -0.1974
    150  CA        34.1630   51.9490   25.8400 C.3   249  PHE249      0.1639
    151  C         34.6400   52.2020   24.4180 C.2   249  PHE249      0.2290
    152  O         35.6410   51.6610   23.9510 O.2   249  PHE249     -0.2864
    153  CB        33.4380   53.2160   26.3240 C.3   249  PHE249      0.0560
    154  CG        32.0560   52.9670   26.8720 C.ar  249  PHE249     -0.0200
    155  CD1       31.8470   52.7440   28.2260 C.ar  249  PHE249     -0.0042
    156  CD2       30.9610   52.9240   26.0270 C.ar  249  PHE249     -0.0042
    157  CE1       30.5660   52.4780   28.7230 C.ar  249  PHE249     -0.0003
    158  CE2       29.6920   52.6570   26.5290 C.ar  249  PHE249     -0.0003
    159  CZ        29.4930   52.4320   27.8760 C.ar  249  PHE249     -0.0000
    160  N         27.3630   54.6980   25.6000 N.3   255  LEU255     -0.1245
    161  CA        27.7770   54.8840   26.9830 C.3   255  LEU255      0.1561
    162  C         26.8040   55.8260   27.6720 C.2   255  LEU255      0.2260
    163  O         26.7700   55.9210   28.8990 O.2   255  LEU255     -0.2867
    164  CB        29.1970   55.4490   27.0490 C.3   255  LEU255      0.0270
    165  CG        29.5510   56.2480   28.3040 C.3   255  LEU255      0.0019
    166  CD1       31.0600   56.3610   28.4620 C.3   255  LEU255      0.0001
    167  CD2       28.9070   57.6260   28.2650 C.3   255  LEU255      0.0001
    168  N         23.5660   53.2530   27.8360 N.3   258  PHE258     -0.1241
    169  CA        23.7700   52.1170   28.7310 C.3   258  PHE258      0.1605
    170  C         23.7610   52.6640   30.1690 C.2   258  PHE258      0.2264
    171  O         23.5940   51.9100   31.1280 O.2   258  PHE258     -0.2867
    172  CB        25.1000   51.4330   28.3430 C.3   258  PHE258      0.0534
    173  CG        25.5980   50.3890   29.3140 C.ar  258  PHE258     -0.0203
    174  CD1       24.7290   49.5450   29.9860 C.ar  258  PHE258     -0.0042
    175  CD2       26.9710   50.2270   29.5050 C.ar  258  PHE258     -0.0042
    176  CE1       25.2220   48.5660   30.8250 C.ar  258  PHE258     -0.0003
    177  CE2       27.4640   49.2510   30.3400 C.ar  258  PHE258     -0.0003
    178  CZ        26.5890   48.4200   31.0000 C.ar  258  PHE258     -0.0000
    179  N         19.9380   52.5400   30.8190 N.3   261  PHE261     -0.1227
    180  CA        19.5060   51.1820   31.0890 C.3   261  PHE261      0.1736
    181  C         19.7870   50.7730   32.5160 C.2   261  PHE261      0.2595
    182  O         18.9000   50.7670   33.3700 O.2   261  PHE261     -0.2718
    183  CB        20.2020   50.2070   30.1590 C.3   261  PHE261      0.0547
    184  CG        19.3270   49.0810   29.7550 C.ar  261  PHE261     -0.0202
    185  CD1       18.4370   49.2310   28.7050 C.ar  261  PHE261     -0.0042
    186  CD2       19.3300   47.8870   30.4640 C.ar  261  PHE261     -0.0042
    187  CE1       17.5610   48.2040   28.3670 C.ar  261  PHE261     -0.0003
    188  CE2       18.4530   46.8500   30.1330 C.ar  261  PHE261     -0.0003
    189  CZ        17.5690   47.0100   29.0840 C.ar  261  PHE261     -0.0000
    190  N         21.0410   50.4350   32.7620 N.am  262  VAL262     -0.1980
    191  CA        21.4970   50.0180   34.0830 C.3   262  VAL262      0.1595
    192  C         20.4980   50.2240   35.2410 C.2   262  VAL262      0.2287
    193  O         19.9620   49.2440   35.7860 O.2   262  VAL262     -0.2864
    194  CB        22.8460   50.7310   34.4300 C.3   262  VAL262      0.0276
    195  CG1       23.2240   50.4990   35.8850 C.3   262  VAL262      0.0022
    196  CG2       23.9410   50.2440   33.5050 C.3   262  VAL262      0.0022
    197  N         16.5750   50.2350   34.4250 N.3   265  THR265     -0.1203
    198  CA        16.3570   48.8380   34.1760 C.3   265  THR265      0.1994
    199  C         16.1880   48.0570   35.4570 C.2   265  THR265      0.2618
    200  O         15.0710   47.6800   35.8220 O.2   265  THR265     -0.2717
    201  CB        17.5090   48.2900   33.3520 C.3   265  THR265      0.1784
    202  OG1       17.1290   48.3570   31.9740 O.3   265  THR265     -0.2211
    203  CG2       17.8750   46.8530   33.7570 C.3   265  THR265      0.0376
    204  N         17.3020   47.8160   36.1360 N.am  266  GLY266     -0.1956
    205  CA        17.2550   47.0790   37.3790 C.3   266  GLY266      0.1869
    206  C         16.1460   47.5540   38.3060 C.2   266  GLY266      0.2309
    207  O         15.4920   46.7350   38.9590 O.2   266  GLY266     -0.2863
    208  N         13.0580   45.8470   37.5410 N.3   269  MET269     -0.1245
    209  CA        13.1040   44.4760   38.0020 C.3   269  MET269      0.1570
    210  C         12.4010   44.3590   39.3360 C.2   269  MET269      0.2261
    211  O         11.2830   43.8830   39.4170 O.2   269  MET269     -0.2867
    212  CB        14.5460   44.0430   38.1670 C.3   269  MET269      0.0387
    213  CG        14.8530   42.7900   37.4410 C.3   269  MET269      0.0595
    214  SD        14.1880   42.9680   35.8120 S.3   269  MET269     -0.1393
    215  CE        12.5820   42.2340   36.0330 C.3   269  MET269      0.0692
@<TRIPOS>BOND
     1    97    96    1
     2    94    91    1
     3    94    95    1
     4    92    93    2
     5    92    91    1
     6   152   151    2
     7   110   108   am
     8    96    95    1
     9    90    91    1
    10   109   108    2
    11   108   107    1
    12   151   150    1
    13   107   104    1
    14    81    80    2
    15   160   161    1
    16    80    79    1
    17   150   153    1
    18   150   149    1
    19   156   158   ar
    20   156   154   ar
    21   147   146    2
    22   153   154    1
    23   104   103    1
    24   104   105    1
    25   158   159   ar
    26    87    85   ar
    27    87    88   ar
    28    78    79    1
    29   103   100   am
    30   105   106    2
    31   149   146   am
    32    85    83   ar
    33   154   155   ar
    34   146   145    1
    35   161   164    1
    36   161   162    1
    37   142   140    1
    38    79    82    1
    39   164   165    1
    40    98    99    1
    41    89    88    1
    42    88    86   ar
    43   143   141    1
    44   162   163    2
    45    83    82    1
    46    83    84   ar
    47   148   145    1
    48   168   169    1
    49   159   157   ar
    50   144   145    1
    51   144   138   am
    52   100    99    1
    53   100   101    2
    54   155   157   ar
    55    99   102    1
    56   167   165    1
    57    86    84   ar
    58   165   166    1
    59   172   169    1
    60   172   173    1
    61   187   185   ar
    62   187   189   ar
    63   140   141    1
    64   140   137    1
    65   137   138    1
    66   137   136    1
    67   185   184   ar
    68    76    75    1
    69   169   170    1
    70   138   139    2
    71   189   188   ar
    72    74    73    2
    73   173   175   ar
    74   173   174   ar
    75   175   177   ar
    76   184   183    1
    77   184   186   ar
    78    73    72    1
    79   174   176   ar
    80   188   186   ar
    81    75    77    1
    82    75    72    1
    83   183   180    1
    84   170   171    2
    85   113   114    2
    86   113   112    1
    87    62    63   ar
    88    62    60   ar
    89   177   178   ar
    90   111   112    1
    91   179   180    1
    92    72    71    1
    93   176   178   ar
    94    63    61   ar
    95   112   115    1
    96   180   181    1
    97    60    59   ar
    98   115   116    1
    99   117   116   ar
   100   117   119   ar
   101   116   118   ar
   102   202   201    1
   103    61    59   ar
   104    59    58    1
   105    70    68    1
   106   119   120   ar
   107   181   190   am
   108   181   182    2
   109    67    66    2
   110   128   127    2
   111   127   126    1
   112   190   191    1
   113   133   131   ar
   114   133   135   ar
   115   131   130   ar
   116    69    68    1
   117   118   120   ar
   118   118   121   ar
   119    58    55    1
   120   201   203    1
   121   201   198    1
   122    66    65    1
   123   196   194    1
   124    68    65    1
   125   120   122   ar
   126    44    43    1
   127   125   126    1
   128   126   129    1
   129   135   134   ar
   130    57    56    2
   131   191   194    1
   132   191   192    1
   133    55    56    1
   134    55    54    1
   135   198   197    1
   136   198   199    1
   137   121   123   ar
   138   130   129    1
   139   130   132   ar
   140    65    64    1
   141    45    43    1
   142   194   195    1
   143    43    42    1
   144   122   124   ar
   145    51    53    1
   146    51    50    1
   147   134   132   ar
   148    54    48   am
   149   192   193    2
   150    42    39    1
   151   199   200    2
   152   199   204   am
   153   123   124   ar
   154    49    48    2
   155    52    50    1
   156   214   215    1
   157   214   213    1
   158    48    47    1
   159   204   205    1
   160    50    47    1
   161    39    40    1
   162    39    38    1
   163    41    40    2
   164    47    46    1
   165   205   206    1
   166   213   212    1
   167    38    32   am
   168   208   209    1
   169    15    16    1
   170    15    14    1
   171   209   212    1
   172   209   210    1
   173    37    35    1
   174    29    28    2
   175   206   207    2
   176    33    32    2
   177    28    27    1
   178    32    31    1
   179    27    26    1
   180    23    22    1
   181    23    24    1
   182    14    13    1
   183   210   211    2
   184    35    34    1
   185    35    36    1
   186    13    10    1
   187    34    31    1
   188    21    18    1
   189    25    24    2
   190    22    19   am
   191    20    19    2
   192    31    30    1
   193    19    18    1
   194    12    11    2
   195    10    11    1
   196    10     9    1
   197    18    17    1
   198     9     3   am
   199     4     3    2
   200     3     2    1
   201     2     5    1
   202     2     1    1
   203     8     7    1
   204     5     6    1
   205     7     6    1
