@<TRIPOS>MOLECULE
tmp/3a0bU04.pdb
 132 133 0 0 0
SMALL
GASTEIGER

@<TRIPOS>ATOM
      1  N          6.9900    7.4810  -20.5570 N.3   131  ARG131     -0.1245
      2  CA         6.7970    6.0790  -20.1800 C.3   131  ARG131      0.1563
      3  C          6.1090    5.9390  -18.8100 C.2   131  ARG131      0.2260
      4  O          6.6370    6.4000  -17.7940 O.2   131  ARG131     -0.2867
      5  CB         8.1520    5.3800  -20.1900 C.3   131  ARG131      0.0307
      6  CG         8.9550    5.6190  -21.4710 C.3   131  ARG131      0.0489
      7  CD        10.1470    4.6690  -21.5240 C.3   131  ARG131      0.2205
      8  NE        10.0140    3.6400  -22.5590 N.pl3 131  ARG131     -0.0865
      9  CZ        10.6280    2.4530  -22.5450 C.cat 131  ARG131      0.5346
     10  NH1       11.4280    2.0950  -21.5460 N.pl3 131  ARG131      0.1354
     11  NH2       10.4650    1.6270  -23.5590 N.pl3 131  ARG131      0.1354
     12  N          5.4280    3.1250  -16.7740 N.3   133  TRP133     -0.1241
     13  CA         5.7940    2.1030  -15.7800 C.3   133  TRP133      0.1605
     14  C          6.5150    2.5250  -14.4970 C.2   133  TRP133      0.2264
     15  O          7.3090    1.7620  -13.9330 O.2   133  TRP133     -0.2867
     16  CB         6.5730    0.9720  -16.4620 C.3   133  TRP133      0.0550
     17  CG         5.8620    0.4710  -17.6500 C.ar  133  TRP133      0.0003
     18  CD1        4.5480    0.1110  -17.7330 C.ar  133  TRP133      0.0946
     19  CD2        6.3990    0.3400  -18.9520 C.ar  133  TRP133      0.0152
     20  NE1        4.2300   -0.2290  -19.0190 N.ar  133  TRP133     -0.2442
     21  CE2        5.3520   -0.0960  -19.7920 C.ar  133  TRP133      0.0810
     22  CE3        7.6700    0.5510  -19.4990 C.ar  133  TRP133      0.0012
     23  CZ2        5.5340   -0.3260  -21.1530 C.ar  133  TRP133      0.0191
     24  CZ3        7.8560    0.3220  -20.8540 C.ar  133  TRP133      0.0001
     25  CH2        6.7890   -0.1130  -21.6690 C.ar  133  TRP133      0.0015
     26  N         32.6360   -7.7440  -20.2620 N.3   253  TYR253     -0.1227
     27  CA        31.3730   -8.4270  -20.5750 C.3   253  TYR253      0.1736
     28  C         30.5050   -8.4450  -19.3060 C.2   253  TYR253      0.2595
     29  O         29.2870   -8.3210  -19.3830 O.2   253  TYR253     -0.2718
     30  CB        31.6100   -9.8890  -21.0410 C.3   253  TYR253      0.0548
     31  CG        31.8890  -10.1360  -22.5300 C.ar  253  TYR253     -0.0200
     32  CD1       30.9600   -9.7800  -23.5160 C.ar  253  TYR253     -0.0009
     33  CD2       33.0570  -10.8000  -22.9420 C.ar  253  TYR253     -0.0009
     34  CE1       31.1860  -10.0870  -24.8770 C.ar  253  TYR253      0.0417
     35  CE2       33.2910  -11.1100  -24.3000 C.ar  253  TYR253      0.0417
     36  CZ        32.3490  -10.7520  -25.2580 C.ar  253  TYR253      0.1957
     37  OH        32.5520  -11.0730  -26.5840 O.3   253  TYR253     -0.2866
     38  N         31.1480   -8.5870  -18.1430 N.am  254  ALA254     -0.1966
     39  CA        30.4650   -8.6540  -16.8470 C.3   254  ALA254      0.1728
     40  C         30.0280   -7.2890  -16.3330 C.2   254  ALA254      0.2617
     41  O         29.1300   -7.2000  -15.4950 O.2   254  ALA254     -0.2715
     42  CB        31.3650   -9.3270  -15.8240 C.3   254  ALA254      0.0334
     43  N         30.6800   -6.2360  -16.8290 N.am  255  SER255     -0.1936
     44  CA        30.3690   -4.8490  -16.4640 C.3   255  SER255      0.2055
     45  C         29.4280   -4.3330  -17.5540 C.2   255  SER255      0.2643
     46  O         29.5070   -4.7980  -18.6900 O.2   255  SER255     -0.2714
     47  CB        31.6500   -4.0040  -16.4340 C.3   255  SER255      0.2130
     48  OG        31.3940   -2.6700  -16.0180 O.3   255  SER255     -0.2179
     49  N         28.5430   -3.3890  -17.2300 N.am  256  PHE256     -0.1959
     50  CA        27.6070   -2.8880  -18.2400 C.3   256  PHE256      0.1771
     51  C         28.1480   -1.8820  -19.2510 C.2   256  PHE256      0.2619
     52  O         28.7180   -0.8390  -18.9100 O.2   256  PHE256     -0.2715
     53  CB        26.3350   -2.3170  -17.5910 C.3   256  PHE256      0.0574
     54  CG        25.3350   -3.3670  -17.1810 C.ar  256  PHE256     -0.0200
     55  CD1       24.0140   -3.0240  -16.9250 C.ar  256  PHE256     -0.0042
     56  CD2       25.7200   -4.6930  -17.0310 C.ar  256  PHE256     -0.0042
     57  CE1       23.0930   -3.9820  -16.5240 C.ar  256  PHE256     -0.0003
     58  CE2       24.8090   -5.6580  -16.6310 C.ar  256  PHE256     -0.0003
     59  CZ        23.4920   -5.3010  -16.3770 C.ar  256  PHE256     -0.0000
     60  N         27.9460   -2.2380  -20.5140 N.am  257  ASN257     -0.1972
     61  CA        28.3520   -1.4480  -21.6630 C.3   257  ASN257      0.1688
     62  C         27.2940   -0.3780  -21.9240 C.2   257  ASN257      0.2292
     63  O         27.5950    0.8170  -22.0190 O.2   257  ASN257     -0.2864
     64  CB        28.4830   -2.3710  -22.8850 C.3   257  ASN257      0.1181
     65  CG        27.5240   -3.5850  -22.8310 C.2   257  ASN257      0.2629
     66  OD1       26.3040   -3.4390  -22.6860 O.2   257  ASN257     -0.2716
     67  ND2       28.0860   -4.7860  -22.9580 N.am  257  ASN257     -0.0877
     68  N         20.9180   -1.0360  -20.1690 N.3   261  SER261     -0.1217
     69  CA        21.1000   -2.2420  -19.3790 C.3   261  SER261      0.1889
     70  C         21.3510   -1.7890  -17.9480 C.2   261  SER261      0.2288
     71  O         20.8490   -2.3830  -16.9940 O.2   261  SER261     -0.2866
     72  CB        22.2850   -3.0560  -19.8970 C.3   261  SER261      0.2089
     73  OG        23.4560   -2.2620  -19.9710 O.3   261  SER261     -0.2183
     74  N         17.3560    0.5590  -14.6650 N.3   264  PHE264     -0.1227
     75  CA        16.2880   -0.1720  -15.3330 C.3   264  PHE264      0.1736
     76  C         16.1990   -1.5380  -14.6960 C.2   264  PHE264      0.2595
     77  O         15.1730   -1.9330  -14.1420 O.2   264  PHE264     -0.2718
     78  CB        16.5770   -0.3020  -16.8290 C.3   264  PHE264      0.0547
     79  CG        16.7300    1.0150  -17.5340 C.ar  264  PHE264     -0.0202
     80  CD1       17.9710    1.6200  -17.6390 C.ar  264  PHE264     -0.0042
     81  CD2       15.6320    1.6490  -18.0910 C.ar  264  PHE264     -0.0042
     82  CE1       18.1150    2.8320  -18.2860 C.ar  264  PHE264     -0.0003
     83  CE2       15.7700    2.8620  -18.7400 C.ar  264  PHE264     -0.0003
     84  CZ        17.0130    3.4540  -18.8380 C.ar  264  PHE264     -0.0000
     85  N         17.3010   -2.2590  -14.8400 N.am  265  PHE265     -0.1976
     86  CA        17.5390   -3.4940  -14.1430 C.3   265  PHE265      0.1639
     87  C         17.6120   -3.0830  -12.6950 C.2   265  PHE265      0.2290
     88  O         17.0190   -3.7100  -11.8230 O.2   265  PHE265     -0.2864
     89  CB        18.8650   -4.0710  -14.6110 C.3   265  PHE265      0.0560
     90  CG        19.5190   -4.9760  -13.6230 C.ar  265  PHE265     -0.0200
     91  CD1       18.9460   -6.1820  -13.2850 C.ar  265  PHE265     -0.0042
     92  CD2       20.7270   -4.6350  -13.0560 C.ar  265  PHE265     -0.0042
     93  CE1       19.5580   -7.0210  -12.3880 C.ar  265  PHE265     -0.0003
     94  CE2       21.3410   -5.4700  -12.1630 C.ar  265  PHE265     -0.0003
     95  CZ        20.7560   -6.6640  -11.8260 C.ar  265  PHE265     -0.0000
     96  N         14.6320   -4.0870  -12.0370 N.3   268  ALA268     -0.1245
     97  CA        14.7350   -5.5440  -12.1930 C.3   268  ALA268      0.1562
     98  C         15.1010   -6.3430  -10.9340 C.2   268  ALA268      0.2260
     99  O         14.4060   -7.2950  -10.5720 O.2   268  ALA268     -0.2867
    100  CB        15.7370   -5.8810  -13.3070 C.3   268  ALA268      0.0290
    101  N         11.3590   -7.4540   -8.6470 N.3   272  VAL272     -0.1245
    102  CA        11.1180   -8.8770   -8.9160 C.3   272  VAL272      0.1561
    103  C         11.0110   -9.6930   -7.6230 C.2   272  VAL272      0.2260
    104  O          9.9910  -10.3270   -7.3700 O.2   272  VAL272     -0.2867
    105  CB        12.2290   -9.5050   -9.8260 C.3   272  VAL272      0.0252
    106  CG1       13.5710   -9.5930   -9.0970 C.3   272  VAL272      0.0019
    107  CG2       11.8040  -10.8760  -10.2670 C.3   272  VAL272      0.0019
    108  N          8.2730   -8.6010   -5.1200 N.3   275  TRP275     -0.1227
    109  CA         6.9490   -9.1060   -5.4020 C.3   275  TRP275      0.1737
    110  C          6.9140  -10.4760   -4.7220 C.2   275  TRP275      0.2595
    111  O          6.0900  -10.7230   -3.8470 O.2   275  TRP275     -0.2718
    112  CB         6.7330   -9.2400   -6.9160 C.3   275  TRP275      0.0564
    113  CG         6.3120   -7.9600   -7.6360 C.ar  275  TRP275      0.0003
    114  CD1        5.5020   -6.9740   -7.1470 C.ar  275  TRP275      0.0946
    115  CD2        6.6080   -7.5900   -9.0020 C.ar  275  TRP275      0.0152
    116  NE1        5.2720   -6.0220   -8.1140 N.ar  275  TRP275     -0.2442
    117  CE2        5.9350   -6.3730   -9.2610 C.ar  275  TRP275      0.0810
    118  CE3        7.3690   -8.1730  -10.0300 C.ar  275  TRP275      0.0012
    119  CZ2        6.0020   -5.7200  -10.5070 C.ar  275  TRP275      0.0191
    120  CZ3        7.4330   -7.5210  -11.2740 C.ar  275  TRP275      0.0001
    121  CH2        6.7480   -6.3040  -11.4940 C.ar  275  TRP275      0.0015
    122  N          7.8520  -11.3420   -5.1030 N.am  276  PHE276     -0.1976
    123  CA         7.9630  -12.7030   -4.5640 C.3   276  PHE276      0.1639
    124  C          7.7600  -12.8320   -3.0730 C.2   276  PHE276      0.2290
    125  O          7.0240  -13.6890   -2.5990 O.2   276  PHE276     -0.2864
    126  CB         9.3260  -13.2980   -4.9240 C.3   276  PHE276      0.0560
    127  CG         9.3780  -13.9000   -6.2970 C.ar  276  PHE276     -0.0200
    128  CD1       10.5800  -14.0190   -6.9790 C.ar  276  PHE276     -0.0042
    129  CD2        8.2110  -14.3440   -6.9130 C.ar  276  PHE276     -0.0042
    130  CE1       10.6220  -14.5680   -8.2500 C.ar  276  PHE276     -0.0003
    131  CE2        8.2390  -14.8930   -8.1830 C.ar  276  PHE276     -0.0003
    132  CZ         9.4450  -15.0040   -8.8530 C.ar  276  PHE276     -0.0000
@<TRIPOS>BOND
     1    37    36    1
     2    36    34   ar
     3    36    35   ar
     4    34    32   ar
     5    35    33   ar
     6    11     9    1
     7    32    31   ar
     8    67    65   am
     9    33    31   ar
    10    64    65    1
    11    64    61    1
    12    65    66    2
    13     8     9    2
    14     8     7    1
    15     9    10    1
    16    31    30    1
    17    63    62    2
    18    62    61    1
    19    25    23   ar
    20    25    24   ar
    21    61    60    1
    22     7     6    1
    23     6     5    1
    24    23    21   ar
    25    30    27    1
    26    24    22   ar
    27    27    26    1
    28    27    28    1
    29     1     2    1
    30    60    51   am
    31     5     2    1
    32     2     3    1
    33    68    69    1
    34    73    72    1
    35    72    69    1
    36    21    20   ar
    37    21    19   ar
    38    22    19   ar
    39    29    28    2
    40    69    70    1
    41    28    38   am
    42    51    52    2
    43    51    50    1
    44    20    18   ar
    45    19    17   ar
    46    84    83   ar
    47    84    82   ar
    48     3     4    2
    49    83    81   ar
    50    46    45    2
    51    82    80   ar
    52    50    53    1
    53    50    49    1
    54    38    39    1
    55    81    79   ar
    56    70    71    2
    57    18    17   ar
    58    17    16    1
    59    80    79   ar
    60    53    54    1
    61    45    49   am
    62    45    44    1
    63    79    78    1
    64    54    56   ar
    65    54    55   ar
    66    56    58   ar
    67    55    57   ar
    68    39    40    1
    69    39    42    1
    70    78    75    1
    71    43    44    1
    72    43    40   am
    73    12    13    1
    74    58    59   ar
    75    57    59   ar
    76    44    47    1
    77    16    13    1
    78    47    48    1
    79    40    41    2
    80    13    14    1
    81    75    76    1
    82    75    74    1
    83    85    76   am
    84    85    86    1
    85    76    77    2
    86    89    86    1
    87    89    90    1
    88    14    15    2
    89    86    87    1
    90    90    91   ar
    91    90    92   ar
    92   100    97    1
    93    91    93   ar
    94    92    94   ar
    95    87    88    2
    96    93    95   ar
    97    97    96    1
    98    97    98    1
    99    94    95   ar
   100   121   120   ar
   101   121   119   ar
   102   120   118   ar
   103    98    99    2
   104   119   117   ar
   105   107   105    1
   106   118   115   ar
   107   105   106    1
   108   105   102    1
   109   117   115   ar
   110   117   116   ar
   111   115   113   ar
   112   102   101    1
   113   102   103    1
   114   132   130   ar
   115   132   131   ar
   116   130   128   ar
   117   131   129   ar
   118   116   114   ar
   119   113   114   ar
   120   113   112    1
   121   103   104    2
   122   128   127   ar
   123   112   109    1
   124   129   127   ar
   125   127   126    1
   126   109   108    1
   127   109   110    1
   128   122   110   am
   129   122   123    1
   130   126   123    1
   131   110   111    2
   132   123   124    1
   133   124   125    2
