@<TRIPOS>MOLECULE
tmp/3a0iA01.pdb
 200 194 0 0 0
SMALL
GASTEIGER

@<TRIPOS>ATOM
      1  N         32.3610   13.6530   56.1320 N.3    48  TYR48      -0.1227
      2  CA        32.9850   14.9760   55.9050 C.3    48  TYR48       0.1736
      3  C         33.9630   15.3890   56.9480 C.2    48  TYR48       0.2595
      4  O         34.4660   16.4720   56.8840 O.2    48  TYR48      -0.2718
      5  CB        31.9120   16.0980   55.6490 C.3    48  TYR48       0.0548
      6  CG        31.2620   15.8110   54.3370 C.ar   48  TYR48      -0.0200
      7  CD1       31.7300   16.3890   53.1490 C.ar   48  TYR48      -0.0009
      8  CD2       30.2030   14.9340   54.2570 C.ar   48  TYR48      -0.0009
      9  CE1       31.1560   16.0240   51.8640 C.ar   48  TYR48       0.0417
     10  CE2       29.6320   14.5880   53.0630 C.ar   48  TYR48       0.0417
     11  CZ        30.0910   15.1470   51.8790 C.ar   48  TYR48       0.1957
     12  OH        29.4590   14.7760   50.7020 O.3    48  TYR48      -0.2866
     13  N         34.2620   14.5400   57.9300 N.am   49  VAL49      -0.1966
     14  CA        35.3560   14.8510   58.8420 C.3    49  VAL49       0.1727
     15  C         36.6030   14.4240   58.1100 C.2    49  VAL49       0.2616
     16  O         36.6390   13.2400   57.6120 O.2    49  VAL49      -0.2715
     17  CB        35.1930   14.0240   60.1710 C.3    49  VAL49       0.0290
     18  CG1       36.4180   14.0410   60.9880 C.3    49  VAL49       0.0023
     19  CG2       34.0700   14.4810   60.9460 C.3    49  VAL49       0.0023
     20  N         37.6470   15.2810   58.0630 N.am   50  ARG50      -0.1963
     21  CA        38.7690   15.0000   57.1790 C.3    50  ARG50       0.1729
     22  C         40.0260   15.1230   57.9190 C.2    50  ARG50       0.2617
     23  O         40.0190   15.7120   58.9740 O.2    50  ARG50      -0.2715
     24  CB        38.8240   15.9700   55.9640 C.3    50  ARG50       0.0348
     25  CG        37.6280   15.9010   55.0150 C.3    50  ARG50       0.0492
     26  CD        37.6280   17.1250   54.0460 C.3    50  ARG50       0.2205
     27  NE        36.4290   17.1510   53.2140 N.pl3  50  ARG50      -0.0865
     28  CZ        36.4300   16.9210   51.9020 C.cat  50  ARG50       0.5346
     29  NH1       37.5890   16.6540   51.2700 N.pl3  50  ARG50       0.1354
     30  NH2       35.2760   16.9810   51.2210 N.pl3  50  ARG50       0.1354
     31  N         41.0950   14.5660   57.3460 N.am   51  SER51      -0.1936
     32  CA        42.4330   14.4920   57.9550 C.3    51  SER51       0.2055
     33  C         43.1780   15.8190   57.9200 C.2    51  SER51       0.2644
     34  O         42.6940   16.7900   57.3500 O.2    51  SER51      -0.2714
     35  CB        43.3250   13.4670   57.2500 C.3    51  SER51       0.2130
     36  OG        43.4570   13.7820   55.8670 O.3    51  SER51      -0.2179
     37  N         44.3780   15.8100   58.5050 N.am   52  THR52      -0.1937
     38  CA        45.1650   17.0230   58.7180 C.3    52  THR52       0.2013
     39  C         44.2630   18.2970   58.8300 C.2    52  THR52       0.2484
     40  O         44.2990   19.2030   57.9500 O.2    52  THR52      -0.2729
     41  CB        46.4120   17.1530   57.7250 C.3    52  THR52       0.1807
     42  OG1       46.4610   18.4670   57.1280 O.3    52  THR52      -0.2208
     43  CG2       46.4480   16.0560   56.6230 C.3    52  THR52       0.0379
     44  N         43.4450   18.3710   59.9190 N.am   53  PRO53      -0.2715
     45  CA        42.4880   19.4860   59.9930 C.3    53  PRO53       0.1536
     46  C         43.2490   20.8450   60.1350 C.2    53  PRO53       0.2598
     47  O         43.1360   21.7300   59.2620 O.2    53  PRO53      -0.2715
     48  CB        41.6300   19.1320   61.2250 C.3    53  PRO53       0.0310
     49  CG        42.5300   18.2540   62.0820 C.3    53  PRO53       0.0237
     50  CD        43.3850   17.4930   61.1180 C.3    53  PRO53       0.0939
     51  N         44.0660   20.9580   61.1760 N.am   54  GLU54      -0.1978
     52  CA        44.8410   22.1830   61.4980 C.3    54  GLU54       0.1602
     53  C         44.1350   23.5510   61.3230 C.2    54  GLU54       0.2287
     54  O         43.9730   24.0690   60.2120 O.2    54  GLU54      -0.2864
     55  CB        46.2490   22.1670   60.8720 C.3    54  GLU54       0.0415
     56  CG        47.3380   22.6730   61.8560 C.3    54  GLU54       0.1163
     57  CD        47.5370   21.7470   63.0970 C.2    54  GLU54       0.3649
     58  OE1       46.6310   21.6670   63.9840 O.co2  54  GLU54      -0.2457
     59  OE2       48.6250   21.1220   63.1910 O.co2  54  GLU54      -0.2457
     60  N         50.6740   20.0030   69.6480 N.3    83  GLU83      -0.1231
     61  CA        50.2290   19.3580   68.3970 C.3    83  GLU83       0.1699
     62  C         48.7300   18.9930   68.3590 C.2    83  GLU83       0.2593
     63  O         48.3830   17.9520   67.7980 O.2    83  GLU83      -0.2718
     64  CB        51.0750   18.1150   68.0340 C.3    83  GLU83       0.0402
     65  CG        52.5040   18.0850   68.5970 C.3    83  GLU83       0.1161
     66  CD        53.5890   18.3450   67.5450 C.2    83  GLU83       0.3649
     67  OE1       53.8350   17.4360   66.7100 O.co2  83  GLU83      -0.2457
     68  OE2       54.2070   19.4490   67.5650 O.co2  83  GLU83      -0.2457
     69  N         47.8600   19.8360   68.9220 N.am   84  GLY84      -0.1942
     70  CA        46.4020   19.6080   68.9050 C.3    84  GLY84       0.2014
     71  C         45.6010   20.3600   69.9720 C.2    84  GLY84       0.2638
     72  O         46.1570   21.2120   70.6800 O.2    84  GLY84      -0.2714
     73  N         44.3050   20.0580   70.0950 N.am   85  GLN85      -0.1977
     74  CA        43.4640   20.7030   71.1120 C.3    85  GLN85       0.1601
     75  C         43.0910   19.7900   72.3020 C.2    85  GLN85       0.2287
     76  O         42.7090   18.5870   72.1010 O.2    85  GLN85      -0.2864
     77  CB        42.1740   21.2030   70.4920 C.3    85  GLN85       0.0394
     78  CG        42.3200   22.3460   69.4700 C.3    85  GLN85       0.0908
     79  CD        42.8380   21.8770   68.1490 C.2    85  GLN85       0.2608
     80  OE1       43.9870   22.1390   67.8120 O.2    85  GLN85      -0.2717
     81  NE2       42.0000   21.1640   67.3810 N.am   85  GLN85      -0.0878
     82  N         29.3580   18.4220   56.6120 N.3   146  ILE146     -0.1245
     83  CA        29.5820   18.2460   58.0170 C.3   146  ILE146      0.1561
     84  C         28.4300   18.7410   58.8500 C.2   146  ILE146      0.2260
     85  O         28.2670   18.3140   60.0010 O.2   146  ILE146     -0.2867
     86  CB        30.9560   18.8390   58.4730 C.3   146  ILE146      0.0252
     87  CG1       31.2470   18.4100   59.8970 C.3   146  ILE146      0.0019
     88  CG2       30.9760   20.3540   58.4320 C.3   146  ILE146      0.0019
     89  CD1       32.4090   17.4430   60.0440 C.3   146  ILE146      0.0001
     90  N         36.0990    8.4680   68.2280 N.3   197  MET197     -0.1230
     91  CA        37.4090    8.3430   67.5870 C.3   197  MET197      0.1702
     92  C         38.1670    9.6560   67.7730 C.2   197  MET197      0.2592
     93  O         39.3400    9.6690   68.1210 O.2   197  MET197     -0.2718
     94  CB        37.2200    8.0680   66.0800 C.3   197  MET197      0.0401
     95  CG        38.5800    8.0260   65.2810 C.3   197  MET197      0.0596
     96  SD        38.4740    7.7410   63.5130 S.3   197  MET197     -0.1393
     97  CE        37.6700    9.3560   63.1740 C.3   197  MET197      0.0692
     98  N         37.4680   10.7800   67.5110 N.am  198  ILE198     -0.1980
     99  CA        38.0870   12.1290   67.5870 C.3   198  ILE198      0.1595
    100  C         38.4970   12.4880   69.0030 C.2   198  ILE198      0.2287
    101  O         39.5680   13.0190   69.1910 O.2   198  ILE198     -0.2864
    102  CB        37.0950   13.2780   67.0090 C.3   198  ILE198      0.0276
    103  CG1       36.7270   12.9860   65.5350 C.3   198  ILE198      0.0022
    104  CG2       37.7070   14.6880   67.2790 C.3   198  ILE198      0.0022
    105  CD1       37.8140   13.1610   64.5290 C.3   198  ILE198      0.0001
    106  N         41.8540   11.4820   69.7240 N.3   201  TYR201     -0.1227
    107  CA        42.9120   11.8990   68.7970 C.3   201  TYR201      0.1736
    108  C         44.0550   12.6550   69.4700 C.2   201  TYR201      0.2595
    109  O         45.2120   12.4370   69.1340 O.2   201  TYR201     -0.2718
    110  CB        42.3420   12.6870   67.6370 C.3   201  TYR201      0.0548
    111  CG        43.4230   13.0960   66.6410 C.ar  201  TYR201     -0.0200
    112  CD1       43.8380   12.2170   65.6560 C.ar  201  TYR201     -0.0009
    113  CD2       44.0490   14.3430   66.7230 C.ar  201  TYR201     -0.0009
    114  CE1       44.7880   12.5550   64.7540 C.ar  201  TYR201      0.0417
    115  CE2       45.0660   14.6970   65.7950 C.ar  201  TYR201      0.0417
    116  CZ        45.3840   13.7880   64.8040 C.ar  201  TYR201      0.1957
    117  OH        46.3670   14.0430   63.8780 O.3   201  TYR201     -0.2866
    118  N         43.7400   13.5050   70.4540 N.am  202  TYR202     -0.1976
    119  CA        44.7470   14.3990   71.0070 C.3   202  TYR202      0.1639
    120  C         45.8440   13.6080   71.6730 C.2   202  TYR202      0.2290
    121  O         47.0580   13.8650   71.4910 O.2   202  TYR202     -0.2864
    122  CB        44.0990   15.3600   72.0090 C.3   202  TYR202      0.0560
    123  CG        45.0880   16.2910   72.6870 C.ar  202  TYR202     -0.0198
    124  CD1       45.9230   17.1650   71.9300 C.ar  202  TYR202     -0.0009
    125  CD2       45.2140   16.3070   74.0640 C.ar  202  TYR202     -0.0009
    126  CE1       46.8540   18.0170   72.5710 C.ar  202  TYR202      0.0417
    127  CE2       46.1440   17.1240   74.6920 C.ar  202  TYR202      0.0417
    128  CZ        46.9170   17.9920   73.9490 C.ar  202  TYR202      0.1957
    129  OH        47.7990   18.7760   74.6240 O.3   202  TYR202     -0.2866
    130  N         47.5370   10.2510   67.9480 N.3   205  HIS205     -0.1241
    131  CA        47.2760   10.5370   66.5350 C.3   205  HIS205      0.1621
    132  C         47.0690    9.2570   65.6970 C.2   205  HIS205      0.2264
    133  O         46.4160    9.3190   64.6530 O.2   205  HIS205     -0.2867
    134  CB        48.4140   11.3880   65.9320 C.3   205  HIS205      0.0745
    135  CG        48.4040   12.8230   66.3590 C.ar  205  HIS205      0.0817
    136  ND1       47.7280   13.2770   67.4760 N.ar  205  HIS205     -0.2268
    137  CD2       49.0280   13.9090   65.8370 C.ar  205  HIS205      0.1154
    138  CE1       47.9340   14.5720   67.6230 C.ar  205  HIS205      0.1986
    139  NE2       48.7170   14.9780   66.6410 N.ar  205  HIS205     -0.2212
    140  N         44.9520    7.0060   66.3720 N.3   207  CYS207     -0.1221
    141  CA        43.5850    6.5730   66.5270 C.3   207  CYS207      0.1808
    142  C         42.9320    6.9290   65.2230 C.2   207  CYS207      0.2601
    143  O         42.8370    8.1070   64.9140 O.2   207  CYS207     -0.2717
    144  CB        42.8630    7.1710   67.7600 C.3   207  CYS207      0.0970
    145  SG        41.0850    6.7370   67.8710 S.3   207  CYS207     -0.0800
    146  N         42.5790    5.8890   64.4370 N.am  208  GLU208     -0.1979
    147  CA        41.9230    6.0790   63.1820 C.3   208  GLU208      0.1602
    148  C         40.6660    5.3140   63.0660 C.2   208  GLU208      0.2287
    149  O         40.1750    5.1520   62.0020 O.2   208  GLU208     -0.2864
    150  CB        42.8610    5.7280   62.0080 C.3   208  GLU208      0.0415
    151  CG        44.1130    6.6440   61.9310 C.3   208  GLU208      0.1163
    152  CD        44.8080    6.5880   60.5660 C.2   208  GLU208      0.3649
    153  OE1       44.2270    7.0220   59.5680 O.co2 208  GLU208     -0.2457
    154  OE2       45.9400    6.1220   60.4450 O.co2 208  GLU208     -0.2457
    155  N         39.2580    5.9350   59.2210 N.3   222  MET222     -0.1245
    156  CA        39.8240    6.8310   58.2470 C.3   222  MET222      0.1570
    157  C         40.0720    6.1980   56.8850 C.2   222  MET222      0.2261
    158  O         40.9630    5.3870   56.7270 O.2   222  MET222     -0.2867
    159  CB        41.1370    7.3580   58.7880 C.3   222  MET222      0.0387
    160  CG        40.9790    8.3730   59.9720 C.3   222  MET222      0.0595
    161  SD        39.5730    9.6380   59.7730 S.3   222  MET222     -0.1393
    162  CE        40.3510   10.6640   58.5120 C.3   222  MET222      0.0692
    163  N         42.1410   12.1060   53.4820 N.3   237  ARG237     -0.1245
    164  CA        41.2930   11.0760   54.0330 C.3   237  ARG237      0.1563
    165  C         40.0930   11.6940   54.6460 C.2   237  ARG237      0.2260
    166  O         40.1120   12.8150   55.0860 O.2   237  ARG237     -0.2867
    167  CB        42.0480   10.2560   55.0720 C.3   237  ARG237      0.0307
    168  CG        43.3800    9.8300   54.5360 C.3   237  ARG237      0.0489
    169  CD        44.3560    9.5220   55.6010 C.3   237  ARG237      0.2205
    170  NE        44.2020    8.1320   55.9450 N.pl3 237  ARG237     -0.0865
    171  CZ        44.8480    7.5480   56.9360 C.cat 237  ARG237      0.5346
    172  NH1       45.6970    8.2590   57.6700 N.pl3 237  ARG237      0.1354
    173  NH2       44.6260    6.2590   57.2170 N.pl3 237  ARG237      0.1354
    174  N         35.1390   18.9140   69.4490 N.3   438  LEU438     -0.1231
    175  CA        36.4600   19.0580   68.8700 C.3   438  LEU438      0.1693
    176  C         36.3930   19.2950   67.3590 C.2   438  LEU438      0.2591
    177  O         37.2820   19.9670   66.7850 O.2   438  LEU438     -0.2718
    178  CB        37.3950   17.8770   69.1690 C.3   438  LEU438      0.0284
    179  CG        38.1410   17.8590   70.4990 C.3   438  LEU438      0.0019
    180  CD1       38.4510   16.3610   70.8750 C.3   438  LEU438      0.0001
    181  CD2       39.4240   18.7430   70.4820 C.3   438  LEU438      0.0001
    182  N         35.3520   18.7230   66.7700 N.am  439  VAL439     -0.1980
    183  CA        35.1020   18.7450   65.3640 C.3   439  VAL439      0.1595
    184  C         34.3880   20.1150   65.0310 C.2   439  VAL439      0.2287
    185  O         34.6570   20.7430   64.0180 O.2   439  VAL439     -0.2864
    186  CB        34.1800   17.4880   64.9500 C.3   439  VAL439      0.0276
    187  CG1       33.3890   17.7160   63.6190 C.3   439  VAL439      0.0022
    188  CG2       35.0010   16.1040   64.8860 C.3   439  VAL439      0.0022
    189  N         36.7440   22.7300   64.8260 N.3   442  VAL442     -0.1231
    190  CA        37.5790   22.8280   63.6380 C.3   442  VAL442      0.1692
    191  C         36.7530   23.3890   62.4830 C.2   442  VAL442      0.2591
    192  O         37.2440   24.1840   61.7130 O.2   442  VAL442     -0.2718
    193  CB        38.3570   21.5210   63.2470 C.3   442  VAL442      0.0266
    194  CG1       38.7560   21.5680   61.7820 C.3   442  VAL442      0.0020
    195  CG2       39.6140   21.3610   64.0650 C.3   442  VAL442      0.0020
    196  N         35.4970   22.9770   62.3950 N.am  443  ALA443     -0.1980
    197  CA        34.6000   23.4210   61.3770 C.3   443  ALA443      0.1597
    198  C         34.2030   24.9260   61.5800 C.2   443  ALA443      0.2287
    199  O         33.6260   25.5810   60.6810 O.2   443  ALA443     -0.2864
    200  CB        33.3880   22.5150   61.3700 C.3   443  ALA443      0.0319
@<TRIPOS>BOND
     1    12    11    1
     2    30    28    1
     3    29    28    1
     4     9    11   ar
     5     9     7   ar
     6    11    10   ar
     7    28    27    2
     8    10     8   ar
     9     7     6   ar
    10    27    26    1
    11   163   164    1
    12   164   165    1
    13   164   167    1
    14    26    25    1
    15     8     6   ar
    16     6     5    1
    17   168   167    1
    18   168   169    1
    19   165   166    2
    20    25    24    1
    21   169   170    1
    22     5     2    1
    23    36    35    1
    24     2     1    1
    25     2     3    1
    26   170   171    2
    27    24    21    1
    28    82    83    1
    29    43    41    1
    30   158   157    2
    31     4     3    2
    32   157   156    1
    33   171   173    1
    34   171   172    1
    35     3    13   am
    36    42    41    1
    37    21    22    1
    38    21    20    1
    39    35    32    1
    40    31    22   am
    41    31    32    1
    42    34    33    2
    43    16    15    2
    44    41    38    1
    45    22    23    2
    46    33    32    1
    47    33    37   am
    48    13    14    1
    49    40    39    2
    50    83    86    1
    51    83    84    1
    52    20    15   am
    53    15    14    1
    54   156   159    1
    55   156   155    1
    56    88    86    1
    57    86    87    1
    58    37    38    1
    59   162   161    1
    60    38    39    1
    61   159   160    1
    62    39    44   am
    63    14    17    1
    64    84    85    2
    65    47    46    2
    66   153   152   ar
    67   161   160    1
    68    87    89    1
    69    44    45    1
    70    44    50    1
    71    45    46    1
    72    45    48    1
    73    46    51   am
    74    17    19    1
    75    17    18    1
    76    54    53    2
    77   154   152   ar
    78   152   151    1
    79   199   198    2
    80    55    52    1
    81    55    56    1
    82    50    49    1
    83    51    52    1
    84    48    49    1
    85    53    52    1
    86   200   197    1
    87   197   198    1
    88   197   196    1
    89   192   191    2
    90   194   193    1
    91    56    57    1
    92   151   150    1
    93   149   148    2
    94   150   147    1
    95   196   191   am
    96   191   190    1
    97   148   147    1
    98    57    59   ar
    99    57    58   ar
   100    97    96    1
   101   147   146    1
   102   193   190    1
   103   193   195    1
   104    96    95    1
   105   187   186    1
   106   190   189    1
   107   117   116    1
   108   185   184    2
   109   146   142   am
   110   105   103    1
   111   133   132    2
   112   114   116   ar
   113   114   112   ar
   114   116   115   ar
   115   188   186    1
   116   143   142    2
   117   186   183    1
   118   184   183    1
   119   142   141    1
   120    95    94    1
   121   183   182    1
   122   103   102    1
   123   112   111   ar
   124   132   131    1
   125   115   113   ar
   126   137   135   ar
   127   137   139   ar
   128   134   135    1
   129   134   131    1
   130    94    91    1
   131   135   136   ar
   132   140   141    1
   133   141   144    1
   134   131   130    1
   135   111   113   ar
   136   111   110    1
   137   139   138   ar
   138    67    66   ar
   139   182   176   am
   140   177   176    2
   141   102   104    1
   142   102    99    1
   143   176   175    1
   144    81    79   am
   145   136   138   ar
   146    98    99    1
   147    98    92   am
   148    66    68   ar
   149    66    65    1
   150    99   100    1
   151    91    92    1
   152    91    90    1
   153   110   107    1
   154   144   145    1
   155    92    93    2
   156    63    62    2
   157    80    79    2
   158    64    61    1
   159    64    65    1
   160    79    78    1
   161    62    61    1
   162    62    69   am
   163    61    60    1
   164   107   108    1
   165   107   106    1
   166   175   178    1
   167   175   174    1
   168    70    69    1
   169    70    71    1
   170   100   101    2
   171   109   108    2
   172   178   179    1
   173    78    77    1
   174   108   118   am
   175    71    73   am
   176    71    72    2
   177    73    74    1
   178   118   119    1
   179   181   179    1
   180    77    74    1
   181   179   180    1
   182   119   120    1
   183   119   122    1
   184    74    75    1
   185   121   120    2
   186   124   126   ar
   187   124   123   ar
   188   122   123    1
   189    76    75    2
   190   126   128   ar
   191   123   125   ar
   192   128   129    1
   193   128   127   ar
   194   125   127   ar
