@<TRIPOS>MOLECULE
tmp/3a0nA00.pdb
 112 106 0 0 0
SMALL
GASTEIGER

@<TRIPOS>ATOM
      1  N        -12.1860  -12.0150  -20.3460 N.3    88  ARG88      -0.1245
      2  CA       -11.8820  -10.8560  -19.5060 C.3    88  ARG88       0.1563
      3  C        -10.4930  -10.9050  -18.8750 C.2    88  ARG88       0.2260
      4  O        -10.2330  -10.3150  -17.8200 O.2    88  ARG88      -0.2867
      5  CB       -12.9940  -10.7330  -18.4480 C.3    88  ARG88       0.0307
      6  CG       -14.3860  -10.6560  -19.0880 C.3    88  ARG88       0.0489
      7  CD       -14.4920   -9.4240  -19.9690 C.3    88  ARG88       0.2205
      8  NE       -15.4280   -9.5690  -21.0810 N.pl3  88  ARG88      -0.0865
      9  CZ       -15.9120   -8.5670  -21.7970 C.cat  88  ARG88       0.5346
     10  NH1      -15.5540   -7.3190  -21.5200 N.pl3  88  ARG88       0.1354
     11  NH2      -16.7550   -8.8050  -22.7880 N.pl3  88  ARG88       0.1354
     12  N         -3.5380  -14.7950  -16.7010 N.3    91  LYS91      -0.1245
     13  CA        -2.1450  -14.5950  -16.3100 C.3    91  LYS91       0.1561
     14  C         -1.1350  -15.0390  -17.3350 C.2    91  LYS91       0.2260
     15  O         -1.3940  -15.9940  -18.0750 O.2    91  LYS91      -0.2867
     16  CB        -1.8940  -15.4530  -15.0480 C.3    91  LYS91       0.0271
     17  CG        -2.2080  -14.7460  -13.7600 C.3    91  LYS91       0.0035
     18  CD        -3.7190  -14.5680  -13.6030 C.3    91  LYS91       0.0206
     19  CE        -4.0610  -14.1870  -12.1730 C.3    91  LYS91       0.1093
     20  NZ        -5.5280  -13.9160  -12.0580 N.3    91  LYS91      -0.1314
     21  N         -0.7890   -9.6590  -16.3600 N.3   117  MET117     -0.1245
     22  CA        -2.0560  -10.2450  -16.7850 C.3   117  MET117      0.1570
     23  C         -2.4980   -9.6700  -18.1060 C.2   117  MET117      0.2261
     24  O         -2.2320   -8.4950  -18.3810 O.2   117  MET117     -0.2867
     25  CB        -3.2000  -10.0120  -15.7870 C.3   117  MET117      0.0387
     26  CG        -3.2210  -10.8890  -14.5790 C.3   117  MET117      0.0595
     27  SD        -4.7200  -10.6800  -13.5820 S.3   117  MET117     -0.1393
     28  CE        -5.9810  -11.3220  -14.6890 C.3   117  MET117      0.0692
     29  N         -5.9950   -8.7820  -20.3720 N.3   119  GLN119     -0.1231
     30  CA        -7.3260   -8.3090  -20.0190 C.3   119  GLN119      0.1698
     31  C         -8.2550   -8.5020  -21.2130 C.2   119  GLN119      0.2592
     32  O         -7.8420   -8.9650  -22.2670 O.2   119  GLN119     -0.2718
     33  CB        -7.3200   -6.8060  -19.6330 C.3   119  GLN119      0.0381
     34  CG        -6.4120   -6.6170  -18.4320 C.3   119  GLN119      0.0905
     35  CD        -7.0720   -6.9770  -17.1400 C.2   119  GLN119      0.2608
     36  OE1       -7.0250   -8.1240  -16.6120 O.2   119  GLN119     -0.2717
     37  NE2       -7.7390   -5.9960  -16.5680 N.am  119  GLN119     -0.0878
     38  N         -9.5090   -8.1070  -21.0060 N.am  120  GLU120     -0.1979
     39  CA       -10.4780   -8.0810  -22.0920 C.3   120  GLU120      0.1602
     40  C         -9.8970   -7.4050  -23.3310 C.2   120  GLU120      0.2287
     41  O         -9.1860   -6.4020  -23.1470 O.2   120  GLU120     -0.2864
     42  CB       -11.7100   -7.3450  -21.5600 C.3   120  GLU120      0.0415
     43  CG       -11.4160   -6.0670  -20.8030 C.3   120  GLU120      0.1163
     44  CD       -11.0210   -6.1320  -19.3490 C.2   120  GLU120      0.3649
     45  OE1      -10.9200   -5.0260  -18.7480 O.co2 120  GLU120     -0.2457
     46  OE2      -10.7910   -7.1820  -18.7090 O.co2 120  GLU120     -0.2457
     47  N         -2.2280   -5.5580  -17.9240 N.3   125  ILE125     -0.1245
     48  CA        -2.0060   -4.8590  -16.6810 C.3   125  ILE125      0.1561
     49  C         -0.8030   -5.4760  -15.9240 C.2   125  ILE125      0.2260
     50  O         -0.4210   -6.6300  -16.1630 O.2   125  ILE125     -0.2867
     51  CB        -3.2130   -4.9260  -15.7330 C.3   125  ILE125      0.0252
     52  CG1       -3.6720   -6.3700  -15.4500 C.3   125  ILE125      0.0019
     53  CG2       -4.3730   -4.0880  -16.2670 C.3   125  ILE125      0.0019
     54  CD1       -4.6490   -6.4490  -14.2690 C.3   125  ILE125      0.0001
     55  N          0.0880   -6.7780  -12.2730 N.3   127  TYR127     -0.1241
     56  CA        -0.7910   -7.3710  -11.2680 C.3   127  TYR127      0.1605
     57  C          0.0380   -7.7180  -10.0440 C.2   127  TYR127      0.2264
     58  O          0.9030   -8.5970  -10.1880 O.2   127  TYR127     -0.2867
     59  CB        -1.4500   -8.5930  -11.8960 C.3   127  TYR127      0.0534
     60  CG        -2.5620   -9.2320  -11.1000 C.ar  127  TYR127     -0.0201
     61  CD1       -3.7240   -8.5070  -10.8330 C.ar  127  TYR127     -0.0009
     62  CD2       -2.4830  -10.5340  -10.6620 C.ar  127  TYR127     -0.0009
     63  CE1       -4.7580   -9.1000  -10.1010 C.ar  127  TYR127      0.0417
     64  CE2       -3.4970  -11.1450   -9.9330 C.ar  127  TYR127      0.0417
     65  CZ        -4.6250  -10.4040   -9.6790 C.ar  127  TYR127      0.1957
     66  OH        -5.6540  -10.9980   -8.9610 O.3   127  TYR127     -0.2866
     67  N         -7.7060  -10.3780   -3.8470 N.3   146  HIS146     -0.1226
     68  CA        -6.7600  -10.9030   -4.8430 C.3   146  HIS146      0.1752
     69  C         -5.7530   -9.7970   -5.1490 C.2   146  HIS146      0.2597
     70  O         -5.6600   -8.8370   -4.4000 O.2   146  HIS146     -0.2718
     71  CB        -7.4890  -11.3850   -6.0900 C.3   146  HIS146      0.0759
     72  CG        -8.4580  -10.3880   -6.6460 C.ar  146  HIS146      0.0818
     73  ND1       -8.0720   -9.3250   -7.4410 N.ar  146  HIS146     -0.2268
     74  CD2       -9.8040  -10.2930   -6.5280 C.ar  146  HIS146      0.1154
     75  CE1       -9.1480   -8.6250   -7.7780 C.ar  146  HIS146      0.1986
     76  NE2      -10.2100   -9.1920   -7.2390 N.ar  146  HIS146     -0.2212
     77  N         -5.0530   -9.9260   -6.2670 N.am  147  GLY147     -0.1942
     78  CA        -3.9810   -8.9660   -6.5490 C.3   147  GLY147      0.2014
     79  C         -4.4900   -7.6250   -7.0030 C.2   147  GLY147      0.2639
     80  O         -5.6880   -7.4470   -7.3040 O.2   147  GLY147     -0.2714
     81  N         -3.5820   -6.6500   -7.0480 N.am  148  ILE148     -0.1963
     82  CA        -3.9630   -5.2600   -7.3650 C.3   148  ILE148      0.1727
     83  C         -3.4820   -4.9390   -8.7560 C.2   148  ILE148      0.2616
     84  O         -2.2870   -5.1590   -9.0680 O.2   148  ILE148     -0.2715
     85  CB        -3.3320   -4.3250   -6.3420 C.3   148  ILE148      0.0290
     86  CG1       -3.5810   -4.7560   -4.8920 C.3   148  ILE148      0.0022
     87  CG2       -3.8030   -2.8940   -6.6120 C.3   148  ILE148      0.0023
     88  CD1       -5.0440   -4.9270   -4.5390 C.3   148  ILE148      0.0001
     89  N         -4.3380   -4.4370   -9.6460 N.am  149  GLY149     -0.1955
     90  CA        -4.0060   -4.1060  -11.0030 C.3   149  GLY149      0.1869
     91  C         -3.5560   -2.6710  -11.1710 C.2   149  GLY149      0.2309
     92  O         -4.0790   -1.7310  -10.5680 O.2   149  GLY149     -0.2863
     93  N         -4.3090   -0.1370  -16.1440 N.3   152  GLN152     -0.1245
     94  CA        -5.5030   -0.4790  -16.8960 C.3   152  GLN152      0.1566
     95  C         -5.7930    0.4540  -18.0700 C.2   152  GLN152      0.2260
     96  O         -6.1950   -0.0250  -19.1370 O.2   152  GLN152     -0.2867
     97  CB        -6.7340   -0.4180  -15.9680 C.3   152  GLN152      0.0367
     98  CG        -6.7480   -1.5410  -14.9360 C.3   152  GLN152      0.0905
     99  CD        -6.1050   -1.1490  -13.6220 C.2   152  GLN152      0.2608
    100  OE1       -5.3070   -0.2080  -13.5350 O.2   152  GLN152     -0.2717
    101  NE2       -6.4640   -1.9080  -12.5890 N.am  152  GLN152     -0.0878
    102  N         -8.6570  -15.7920  -12.6810 N.3   222  GLY222     -0.1210
    103  CA       -10.1140  -15.9200  -12.4690 C.3   222  GLY222      0.1940
    104  C        -10.7710  -14.5630  -12.5190 C.2   222  GLY222      0.2453
    105  O        -10.1480  -13.4960  -12.6580 O.2   222  GLY222     -0.2732
    106  N        -12.1010  -14.5280  -12.4180 N.am  223  PRO223     -0.2728
    107  CA       -12.9600  -15.6900  -12.2610 C.3   223  PRO223      0.1401
    108  C        -13.4950  -16.2990  -13.5440 C.2   223  PRO223      0.2269
    109  O        -14.1610  -17.3390  -13.4960 O.2   223  PRO223     -0.2865
    110  CB       -14.1460  -15.0300  -11.5070 C.3   223  PRO223      0.0296
    111  CG       -14.2500  -13.6650  -12.0870 C.3   223  PRO223      0.0237
    112  CD       -12.8410  -13.2430  -12.4490 C.3   223  PRO223      0.0939
@<TRIPOS>BOND
     1    40    41    2
     2    40    39    1
     3    11     9    1
     4    32    31    2
     5    39    42    1
     6    39    38    1
     7     9    10    1
     8     9     8    2
     9    42    43    1
    10    31    38   am
    11    31    30    1
    12     8     7    1
    13    43    44    1
    14    29    30    1
    15     1     2    1
    16    30    33    1
    17     7     6    1
    18    33    34    1
    19     2     3    1
    20     2     5    1
    21    44    45   ar
    22    44    46   ar
    23    96    95    2
    24     6     5    1
    25     3     4    2
    26    34    35    1
    27    24    23    2
    28    23    22    1
    29    15    14    2
    30    95    94    1
    31    47    48    1
    32    14    13    1
    33    35    36    2
    34    35    37   am
    35    94    93    1
    36    94    97    1
    37    22    21    1
    38    22    25    1
    39    12    13    1
    40    48    49    1
    41    48    51    1
    42    13    16    1
    43    53    51    1
    44    50    49    2
    45    97    98    1
    46    25    26    1
    47    51    52    1
    48    52    54    1
    49    16    17    1
    50    98    99    1
    51    28    27    1
    52    26    27    1
    53    17    18    1
    54    99   100    2
    55    99   101   am
    56    18    19    1
    57   108   109    2
    58   108   107    1
    59   102   103    1
    60   105   104    2
    61   104   103    1
    62   104   106   am
    63   112   106    1
    64   112   111    1
    65   106   107    1
    66    55    56    1
    67   107   110    1
    68    19    20    1
    69   111   110    1
    70    59    56    1
    71    59    60    1
    72    56    57    1
    73    91    90    1
    74    91    92    2
    75    60    61   ar
    76    60    62   ar
    77    90    89    1
    78    61    63   ar
    79    62    64   ar
    80    58    57    2
    81    63    65   ar
    82    64    65   ar
    83    65    66    1
    84    89    83   am
    85    84    83    2
    86    83    82    1
    87    75    73   ar
    88    75    76   ar
    89    73    72   ar
    90    82    81    1
    91    82    85    1
    92    80    79    2
    93    76    74   ar
    94    81    79   am
    95    79    78    1
    96    72    74   ar
    97    72    71    1
    98    87    85    1
    99    78    77    1
   100    85    86    1
   101    77    69   am
   102    71    68    1
   103    69    68    1
   104    69    70    2
   105    86    88    1
   106    68    67    1
