@<TRIPOS>MOLECULE
tmp/3a0sA00.pdb
 108 103 0 0 0
SMALL
GASTEIGER

@<TRIPOS>ATOM
      1  N          9.7640    5.8570   48.3760 N.3     8  LEU8       -0.1231
      2  CA         8.6650    5.4140   49.2540 C.3     8  LEU8        0.1693
      3  C          9.2490    4.9010   50.5600 C.2     8  LEU8        0.2593
      4  O         10.3210    4.3000   50.5700 O.2     8  LEU8       -0.2718
      5  CB         7.9090    4.2440   48.6350 C.3     8  LEU8        0.0284
      6  CG         7.3010    4.5140   47.2690 C.3     8  LEU8        0.0019
      7  CD1        6.4630    3.3420   46.8850 C.3     8  LEU8        0.0001
      8  CD2        6.4050    5.7570   47.2570 C.3     8  LEU8        0.0001
      9  N          8.5410    5.1490   51.6510 N.am    9  SER9       -0.1938
     10  CA         8.8800    4.5790   52.9520 C.3     9  SER9        0.2055
     11  C          8.4550    3.1160   52.9770 C.2     9  SER9        0.2643
     12  O          7.7850    2.6250   52.0750 O.2     9  SER9       -0.2714
     13  CB         8.1890    5.3480   54.0690 C.3     9  SER9        0.2130
     14  OG         6.7960    5.0550   54.0940 O.3     9  SER9       -0.2179
     15  N          8.7830    2.4330   54.0830 N.am   10  LYS10      -0.1963
     16  CA         8.3810    1.0270   54.2460 C.3    10  LYS10       0.1728
     17  C          6.8710    0.8710   54.4230 C.2    10  LYS10       0.2616
     18  O          6.3220   -0.2270   54.3230 O.2    10  LYS10      -0.2715
     19  CB         9.1320    0.3820   55.4160 C.3    10  LYS10       0.0311
     20  CG         8.8820    1.0120   56.7610 C.3    10  LYS10       0.0038
     21  CD         9.4920    0.1300   57.8790 C.3    10  LYS10       0.0206
     22  CE        10.8460    0.5550   58.2630 C.3    10  LYS10       0.1093
     23  NZ        11.1080    0.5280   59.7640 N.3    10  LYS10      -0.1314
     24  N          6.1810    1.9900   54.6330 N.am   11  ASP11      -0.1957
     25  CA         4.7280    1.9670   54.6200 C.3    11  ASP11       0.1840
     26  C          4.0950    2.4230   53.3230 C.2    11  ASP11       0.2622
     27  O          2.8710    2.5780   53.2640 O.2    11  ASP11      -0.2715
     28  CB         4.1880    2.7770   55.7860 C.3    11  ASP11       0.1450
     29  CG         4.6790    2.2450   57.1020 C.2    11  ASP11       0.3671
     30  OD1        4.3310    1.1060   57.4600 O.co2  11  ASP11      -0.2456
     31  OD2        5.4480    2.9380   57.7450 O.co2  11  ASP11      -0.2456
     32  N          4.9030    2.6490   52.3020 N.am   12  GLY12      -0.1954
     33  CA         4.3840    3.0380   50.9990 C.3    12  GLY12       0.1869
     34  C          4.1800    4.5260   50.8160 C.2    12  GLY12       0.2309
     35  O          3.5660    4.9340   49.8120 O.2    12  GLY12      -0.2863
     36  N          0.2730    7.8430   50.3990 N.3    36  ARG36      -0.1231
     37  CA         0.5960    6.5540   49.8120 C.3    36  ARG36       0.1694
     38  C          0.5830    6.6240   48.3120 C.2    36  ARG36       0.2592
     39  O         -0.3910    7.0630   47.7270 O.2    36  ARG36      -0.2718
     40  CB        -0.1460    5.3830   50.4110 C.3    36  ARG36       0.0321
     41  CG         0.7700    4.7610   51.4360 C.3    36  ARG36       0.0489
     42  CD         0.3960    3.4050   51.6630 C.3    36  ARG36       0.2205
     43  NE        -0.3090    3.3370   52.9400 N.pl3  36  ARG36      -0.0865
     44  CZ        -1.5220    3.8110   53.2120 C.cat  36  ARG36       0.5346
     45  NH1       -2.2450    4.4330   52.3030 N.pl3  36  ARG36       0.1354
     46  NH2       -2.0080    3.6710   54.4400 N.pl3  36  ARG36       0.1354
     47  N          1.6620    6.1820   47.6740 N.am   37  LEU37      -0.1966
     48  CA         1.7260    6.2010   46.2160 C.3    37  LEU37       0.1728
     49  C          0.5550    5.4710   45.5930 C.2    37  LEU37       0.2616
     50  O          0.0110    5.9270   44.5800 O.2    37  LEU37      -0.2715
     51  CB         3.0430    5.5660   45.7020 C.3    37  LEU37       0.0311
     52  CG         3.2110    5.6680   44.1810 C.3    37  LEU37       0.0022
     53  CD1        3.3640    7.1240   43.7240 C.3    37  LEU37       0.0001
     54  CD2        4.4570    4.9130   43.7310 C.3    37  LEU37       0.0001
     55  N          0.1840    4.3540   46.2010 N.am   38  LYS38      -0.1977
     56  CA        -0.8450    3.5030   45.6290 C.3    38  LYS38       0.1596
     57  C         -2.2080    4.1880   45.6490 C.2    38  LYS38       0.2287
     58  O         -3.1400    3.7100   44.9720 O.2    38  LYS38      -0.2864
     59  CB        -0.8890    2.1350   46.3260 C.3    38  LYS38       0.0298
     60  CG        -1.2420    2.1460   47.7780 C.3    38  LYS38       0.0038
     61  CD        -1.3290    0.7250   48.3790 C.3    38  LYS38       0.0206
     62  CE        -1.5590    0.7960   49.8870 C.3    38  LYS38       0.1093
     63  NZ        -1.4900   -0.5290   50.5910 N.3    38  LYS38      -0.1314
     64  N          2.9760    1.1470   42.5220 N.3    47  GLY47      -0.1225
     65  CA         2.9490    1.0130   43.9840 C.3    47  GLY47       0.1811
     66  C          2.9610   -0.4500   44.3770 C.2    47  GLY47       0.2280
     67  O          3.6530   -0.8390   45.3080 O.2    47  GLY47      -0.2866
     68  N          6.4220   -1.9600   43.8140 N.3    50  ALA50      -0.1231
     69  CA         7.3440   -1.5150   44.8730 C.3    50  ALA50       0.1694
     70  C          7.1370   -2.3520   46.1370 C.2    50  ALA50       0.2591
     71  O          8.0960   -2.6870   46.8270 O.2    50  ALA50      -0.2718
     72  CB         7.1230   -0.0100   45.1660 C.3    50  ALA50       0.0304
     73  N          5.8810   -2.6830   46.4460 N.am   51  GLU51      -0.1979
     74  CA         5.5680   -3.5400   47.6140 C.3    51  GLU51       0.1602
     75  C          6.2240   -4.8950   47.4660 C.2    51  GLU51       0.2287
     76  O          6.8010   -5.4280   48.4080 O.2    51  GLU51      -0.2864
     77  CB         4.0510   -3.7570   47.7690 C.3    51  GLU51       0.0415
     78  CG         3.2600   -2.5170   48.1230 C.3    51  GLU51       0.1163
     79  CD         1.7650   -2.7760   48.4170 C.2    51  GLU51       0.3649
     80  OE1        1.1830   -3.7240   47.8820 O.co2  51  GLU51      -0.2457
     81  OE2        1.1760   -1.9890   49.1950 O.co2  51  GLU51      -0.2457
     82  N         10.0240   -4.5970   47.9100 N.3    54  PHE54      -0.1227
     83  CA        10.3560   -4.4540   49.3150 C.3    54  PHE54       0.1736
     84  C         10.3040   -5.8100   50.0330 C.2    54  PHE54       0.2595
     85  O         11.2810   -6.2060   50.6810 O.2    54  PHE54      -0.2718
     86  CB         9.4110   -3.4490   49.9620 C.3    54  PHE54       0.0547
     87  CG         9.7430   -3.1300   51.3920 C.ar   54  PHE54      -0.0202
     88  CD1       10.6930   -2.1630   51.7130 C.ar   54  PHE54      -0.0042
     89  CD2        9.1070   -3.8070   52.4280 C.ar   54  PHE54      -0.0042
     90  CE1       10.9730   -1.8710   53.0610 C.ar   54  PHE54      -0.0003
     91  CE2        9.4080   -3.5290   53.7710 C.ar   54  PHE54      -0.0003
     92  CZ        10.3490   -2.5710   54.0820 C.ar   54  PHE54      -0.0000
     93  N          9.1900   -6.5290   49.8810 N.am   55  GLU55      -0.1979
     94  CA         9.0310   -7.8530   50.5170 C.3    55  GLU55       0.1602
     95  C         10.0950   -8.8680   50.1010 C.2    55  GLU55       0.2287
     96  O         10.4970   -9.7290   50.8990 O.2    55  GLU55      -0.2864
     97  CB         7.6640   -8.4260   50.1780 C.3    55  GLU55       0.0415
     98  CG         6.5020   -7.7530   50.8780 C.3    55  GLU55       0.1163
     99  CD         5.1980   -8.5110   50.6610 C.2    55  GLU55       0.3649
    100  OE1        5.2350   -9.7620   50.6190 O.co2  55  GLU55      -0.2457
    101  OE2        4.1350   -7.8630   50.5200 O.co2  55  GLU55      -0.2457
    102  N         11.7500    1.9990   49.3360 N.3    90  VAL90      -0.1245
    103  CA        12.1020    1.6580   47.9510 C.3    90  VAL90       0.1561
    104  C         12.2450    2.9720   47.1620 C.2    90  VAL90       0.2260
    105  O         11.3500    3.8200   47.2140 O.2    90  VAL90      -0.2867
    106  CB        10.9980    0.7830   47.3240 C.3    90  VAL90       0.0252
    107  CG1       11.2710    0.5650   45.8290 C.3    90  VAL90       0.0019
    108  CG2       10.8530   -0.5690   48.0520 C.3    90  VAL90       0.0019
@<TRIPOS>BOND
     1    64    65    1
     2    53    52    1
     3    54    52    1
     4    68    69    1
     5    65    66    1
     6    52    51    1
     7    66    67    2
     8    50    49    2
     9    69    72    1
    10    69    70    1
    11    58    57    2
    12    49    55   am
    13    49    48    1
    14    56    57    1
    15    56    55    1
    16    56    59    1
    17    51    48    1
    18   107   106    1
    19    70    73   am
    20    70    71    2
    21    48    47    1
    22    59    60    1
    23    73    74    1
    24     7     6    1
    25   104   105    2
    26   104   103    1
    27     8     6    1
    28     6     5    1
    29   106   103    1
    30   106   108    1
    31    75    74    1
    32    75    76    2
    33    74    77    1
    34    47    38   am
    35    39    38    2
    36    77    78    1
    37    60    61    1
    38    80    79   ar
    39    82    83    1
    40   103   102    1
    41    78    79    1
    42    38    37    1
    43     1     2    1
    44    61    62    1
    45    79    81   ar
    46     5     2    1
    47     2     3    1
    48    83    86    1
    49    83    84    1
    50    37    36    1
    51    37    40    1
    52    35    34    2
    53    93    84   am
    54    93    94    1
    55    62    63    1
    56    86    87    1
    57    84    85    2
    58    95    94    1
    59    95    96    2
    60    97    94    1
    61    97    98    1
    62    40    41    1
    63   101    99   ar
    64     3     4    2
    65     3     9   am
    66   100    99   ar
    67    99    98    1
    68    34    33    1
    69    33    32    1
    70    87    88   ar
    71    87    89   ar
    72    41    42    1
    73     9    10    1
    74    42    43    1
    75    88    90   ar
    76    12    11    2
    77    32    26   am
    78    45    44    1
    79    89    91   ar
    80    43    44    2
    81    10    11    1
    82    10    13    1
    83    11    15   am
    84    90    92   ar
    85    44    46    1
    86    27    26    2
    87    26    25    1
    88    91    92   ar
    89    13    14    1
    90    15    16    1
    91    16    17    1
    92    16    19    1
    93    18    17    2
    94    17    24   am
    95    25    24    1
    96    25    28    1
    97    19    20    1
    98    28    29    1
    99    20    21    1
   100    29    30   ar
   101    29    31   ar
   102    21    22    1
   103    22    23    1
