@<TRIPOS>MOLECULE
tmp/3a0tA00.pdb
 174 167 0 0 0
SMALL
GASTEIGER

@<TRIPOS>ATOM
      1  N        -35.6290   15.6970   32.1700 N.3    55  LEU55      -0.1245
      2  CA       -35.3970   14.4000   31.5440 C.3    55  LEU55       0.1561
      3  C        -33.9430   14.2230   31.1140 C.2    55  LEU55       0.2260
      4  O        -33.3710   13.1270   31.2430 O.2    55  LEU55      -0.2867
      5  CB       -36.3410   14.2030   30.3520 C.3    55  LEU55       0.0270
      6  CG       -37.8340   14.1460   30.6810 C.3    55  LEU55       0.0019
      7  CD1      -38.6700   14.0380   29.3960 C.3    55  LEU55       0.0001
      8  CD2      -38.1360   12.9710   31.6310 C.3    55  LEU55       0.0001
      9  N        -31.8260   13.6190   34.2190 N.3    58  ASN58      -0.1225
     10  CA       -31.9930   12.2210   34.6460 C.3    58  ASN58       0.1785
     11  C        -31.2260   11.2480   33.7430 C.2    58  ASN58       0.2597
     12  O        -30.6460   10.2640   34.2240 O.2    58  ASN58      -0.2718
     13  CB       -33.4810   11.8360   34.6760 C.3    58  ASN58       0.1169
     14  CG       -34.2130   12.4090   35.8970 C.2    58  ASN58       0.2627
     15  OD1      -33.5910   12.8210   36.8710 O.2    58  ASN58      -0.2716
     16  ND2      -35.5400   12.3820   35.8560 N.am   58  ASN58      -0.0877
     17  N        -31.2250   11.5230   32.4420 N.am   59  ALA59      -0.1979
     18  CA       -30.5730   10.6450   31.4570 C.3    59  ALA59       0.1597
     19  C        -29.0580   10.6270   31.6770 C.2    59  ALA59       0.2287
     20  O        -28.4280    9.5690   31.6130 O.2    59  ALA59      -0.2864
     21  CB       -30.8890   11.1190   30.0310 C.3    59  ALA59       0.0319
     22  N        -27.5150   11.4010   34.5480 N.3    61  GLU61      -0.1231
     23  CA       -27.3090   10.7560   35.8390 C.3    61  GLU61       0.1699
     24  C        -27.4420    9.2340   35.7330 C.2    61  GLU61       0.2592
     25  O        -26.6580    8.4950   36.3240 O.2    61  GLU61      -0.2718
     26  CB       -28.2550   11.3570   36.8960 C.3    61  GLU61       0.0402
     27  CG       -27.8360   12.7800   37.3010 C.3    61  GLU61       0.1161
     28  CD       -28.9010   13.5760   38.0510 C.2    61  GLU61       0.3649
     29  OE1      -30.0730   13.1430   38.1290 O.co2  61  GLU61      -0.2457
     30  OE2      -28.5570   14.6740   38.5260 O.co2  61  GLU61      -0.2457
     31  N        -28.3720    8.7720   34.9030 N.am   62  ALA62      -0.1980
     32  CA       -28.5980    7.3410   34.7150 C.3    62  ALA62       0.1597
     33  C        -27.5060    6.6890   33.8570 C.2    62  ALA62       0.2287
     34  O        -27.1340    5.5350   34.0860 O.2    62  ALA62      -0.2864
     35  CB       -29.9700    7.1000   34.0890 C.3    62  ALA62       0.0319
     36  N        -31.6990    6.8160   27.2210 N.3    86  ASN86      -0.1240
     37  CA       -30.3090    6.6720   27.6670 C.3    86  ASN86       0.1653
     38  C        -29.9670    5.1960   27.8090 C.2    86  ASN86       0.2266
     39  O        -30.8340    4.3850   28.1480 O.2    86  ASN86      -0.2867
     40  CB       -30.0570    7.3910   29.0020 C.3    86  ASN86       0.1155
     41  CG       -30.7640    6.7110   30.1850 C.2    86  ASN86       0.2627
     42  OD1      -31.9380    6.9760   30.4460 O.2    86  ASN86      -0.2716
     43  ND2      -30.0390    5.8420   30.9120 N.am   86  ASN86      -0.0877
     44  N        -29.4240    0.9370   33.3020 N.3    89  PRO89      -0.2103
     45  CA       -30.2550   -0.1280   33.8530 C.3    89  PRO89       0.1489
     46  C        -31.7250    0.2280   33.7060 C.2    89  PRO89       0.2418
     47  O        -32.0690    1.4090   33.6490 O.2    89  PRO89      -0.2734
     48  CB       -29.8560   -0.1600   35.3350 C.3    89  PRO89       0.0282
     49  CG       -29.3140    1.1990   35.6210 C.3    89  PRO89       0.0208
     50  CD       -28.6590    1.6520   34.3340 C.3    89  PRO89       0.0893
     51  N        -32.5840   -0.7920   33.6090 N.am   90  PRO90      -0.2718
     52  CA       -34.0030   -0.6250   33.3520 C.3    90  PRO90       0.1535
     53  C        -34.7140   -0.0870   34.5940 C.2    90  PRO90       0.2598
     54  O        -34.1520   -0.0990   35.6910 O.2    90  PRO90      -0.2715
     55  CB       -34.4740   -2.0550   33.0510 C.3    90  PRO90       0.0310
     56  CG       -33.5220   -2.9280   33.8250 C.3    90  PRO90       0.0237
     57  CD       -32.2080   -2.2060   33.8280 C.3    90  PRO90       0.0939
     58  N        -35.9530    0.3580   34.4120 N.am   91  ILE91      -0.1978
     59  CA       -36.8270    0.6450   35.5410 C.3    91  ILE91       0.1596
     60  C        -37.8080   -0.5100   35.7570 C.2    91  ILE91       0.2287
     61  O        -38.5640   -0.8680   34.8640 O.2    91  ILE91      -0.2864
     62  CB       -37.5920    1.9650   35.3040 C.3    91  ILE91       0.0276
     63  CG1      -36.5730    3.1030   35.1030 C.3    91  ILE91       0.0022
     64  CG2      -38.5440    2.2680   36.4700 C.3    91  ILE91       0.0022
     65  CD1      -37.2100    4.4690   34.7670 C.3    91  ILE91       0.0001
     66  N        -41.8710    0.2030   39.9700 N.3    95  LEU95      -0.1245
     67  CA       -41.5360    1.6300   40.1240 C.3    95  LEU95       0.1561
     68  C        -42.0320    2.5270   38.9890 C.2    95  LEU95       0.2260
     69  O        -41.8390    3.7440   39.0280 O.2    95  LEU95      -0.2867
     70  CB       -40.0300    1.8220   40.2950 C.3    95  LEU95       0.0270
     71  CG       -39.3600    1.2260   41.5330 C.3    95  LEU95       0.0019
     72  CD1      -37.8830    1.6340   41.5570 C.3    95  LEU95       0.0001
     73  CD2      -40.0710    1.6940   42.7960 C.3    95  LEU95       0.0001
     74  N        -41.9930    6.3380   40.3340 N.3    99  ILE99      -0.1245
     75  CA       -40.9770    7.3250   39.9950 C.3    99  ILE99       0.1561
     76  C        -41.5500    8.7230   39.7200 C.2    99  ILE99       0.2260
     77  O        -40.8260    9.7030   39.7810 O.2    99  ILE99      -0.2867
     78  CB       -40.1010    6.8780   38.8200 C.3    99  ILE99       0.0252
     79  CG1      -40.9500    6.6720   37.5650 C.3    99  ILE99       0.0019
     80  CG2      -39.3400    5.5980   39.2060 C.3    99  ILE99       0.0019
     81  CD1      -40.1120    6.4270   36.2990 C.3    99  ILE99       0.0001
     82  N        -40.1500   10.8570   45.5170 N.3   104  PHE104     -0.1227
     83  CA       -39.5300    9.5410   45.2600 C.3   104  PHE104      0.1736
     84  C        -38.1980    9.6950   44.5520 C.2   104  PHE104      0.2596
     85  O        -38.1320   10.2390   43.4500 O.2   104  PHE104     -0.2718
     86  CB       -40.4200    8.5900   44.4520 C.3   104  PHE104      0.0547
     87  CG       -39.7780    7.2350   44.2150 C.ar  104  PHE104     -0.0202
     88  CD1      -39.8630    6.2420   45.1830 C.ar  104  PHE104     -0.0042
     89  CD2      -38.9150    7.0420   43.1370 C.ar  104  PHE104     -0.0042
     90  CE1      -39.2140    5.0230   45.0110 C.ar  104  PHE104     -0.0003
     91  CE2      -38.2500    5.8350   42.9620 C.ar  104  PHE104     -0.0003
     92  CZ       -38.4080    4.8190   43.9060 C.ar  104  PHE104     -0.0000
     93  N        -37.1420    9.1520   45.1560 N.am  105  THR105     -0.1939
     94  CA       -35.8180    9.2040   44.5510 C.3   105  THR105      0.2028
     95  C        -35.0170    7.9750   44.9690 C.2   105  THR105      0.2643
     96  O        -35.1960    7.4580   46.0720 O.2   105  THR105     -0.2714
     97  CB       -35.0450   10.4760   44.9670 C.3   105  THR105      0.1808
     98  OG1      -33.7530   10.4760   44.3540 O.3   105  THR105     -0.2208
     99  CG2      -34.8980   10.5700   46.4940 C.3   105  THR105      0.0379
    100  N        -34.1500    7.5040   44.0820 N.am  106  THR106     -0.1936
    101  CA       -33.1980    6.4540   44.4430 C.3   106  THR106      0.2028
    102  C        -31.8020    7.0400   44.6360 C.2   106  THR106      0.2642
    103  O        -30.8250    6.3000   44.8210 O.2   106  THR106     -0.2714
    104  CB       -33.1530    5.3540   43.3740 C.3   106  THR106      0.1808
    105  OG1      -32.8190    5.9330   42.1090 O.3   106  THR106     -0.2208
    106  CG2      -34.5110    4.6420   43.2670 C.3   106  THR106      0.0379
    107  N        -31.7160    8.3710   44.6190 N.am  107  LYS107     -0.1977
    108  CA       -30.4350    9.0840   44.6540 C.3   107  LYS107      0.1596
    109  C        -30.1670    9.7540   46.0150 C.2   107  LYS107      0.2287
    110  O        -31.0520   10.3660   46.6030 O.2   107  LYS107     -0.2864
    111  CB       -30.3810   10.1330   43.5290 C.3   107  LYS107      0.0298
    112  CG       -30.6900    9.5640   42.1440 C.3   107  LYS107      0.0038
    113  CD       -30.9060   10.6660   41.0960 C.3   107  LYS107      0.0206
    114  CE       -31.3100   10.0730   39.7430 C.3   107  LYS107      0.1093
    115  NZ       -31.7480   11.1320   38.7370 N.3   107  LYS107     -0.1314
    116  N        -31.0040   13.2390   45.9570 N.3   110  GLY110     -0.1210
    117  CA       -32.1270   13.4700   45.0450 C.3   110  GLY110      0.1956
    118  C        -33.1860   14.3740   45.6550 C.2   110  GLY110      0.2613
    119  O        -33.5180   14.2500   46.8400 O.2   110  GLY110     -0.2717
    120  N        -33.7380   15.2760   44.8470 N.am  111  THR111     -0.1938
    121  CA       -34.9850   15.9510   45.2070 C.3   111  THR111      0.2028
    122  C        -36.2010   15.0420   45.1080 C.2   111  THR111      0.2643
    123  O        -37.2200   15.2860   45.7630 O.2   111  THR111     -0.2714
    124  CB       -35.2500   17.1800   44.3010 C.3   111  THR111      0.1808
    125  OG1      -35.3290   16.7430   42.9350 O.3   111  THR111     -0.2208
    126  CG2      -34.1130   18.2080   44.4330 C.3   111  THR111      0.0379
    127  N        -36.1710   14.1210   44.1460 N.am  112  GLY112     -0.1939
    128  CA       -37.3610   13.3520   43.7910 C.3   112  GLY112      0.2014
    129  C        -38.4700   14.2100   43.1980 C.2   112  GLY112      0.2639
    130  O        -39.6340   13.8240   43.2220 O.2   112  GLY112     -0.2714
    131  N        -38.0860   15.3220   42.5790 N.am  113  LEU113     -0.1963
    132  CA       -39.0660   16.2430   42.0130 C.3   113  LEU113      0.1728
    133  C        -39.0550   16.3250   40.4930 C.2   113  LEU113      0.2617
    134  O        -39.9740   16.8740   39.9060 O.2   113  LEU113     -0.2715
    135  CB       -38.9030   17.6430   42.6020 C.3   113  LEU113      0.0311
    136  CG       -39.1680   17.7500   44.1150 C.3   113  LEU113      0.0022
    137  CD1      -38.7960   19.1740   44.5500 C.3   113  LEU113      0.0001
    138  CD2      -40.6640   17.5010   44.3560 C.3   113  LEU113      0.0001
    139  N        -37.9850   15.8700   39.8560 N.am  114  GLY114     -0.1940
    140  CA       -37.8630   16.0610   38.4020 C.3   114  GLY114      0.2014
    141  C        -39.0920   15.5320   37.6770 C.2   114  GLY114      0.2639
    142  O        -39.6760   16.2120   36.8140 O.2   114  GLY114     -0.2714
    143  N        -39.4890   14.3080   38.0090 N.am  115  LEU115     -0.1963
    144  CA       -40.5470   13.6390   37.2540 C.3   115  LEU115      0.1728
    145  C        -41.9560   14.0400   37.7140 C.2   115  LEU115      0.2616
    146  O        -42.9100   13.9790   36.9370 O.2   115  LEU115     -0.2715
    147  CB       -40.3770   12.1140   37.3170 C.3   115  LEU115      0.0311
    148  CG       -39.1910   11.5870   36.4900 C.3   115  LEU115      0.0022
    149  CD1      -39.0710   10.0610   36.6560 C.3   115  LEU115      0.0001
    150  CD2      -39.3650   11.9710   34.9890 C.3   115  LEU115      0.0001
    151  N        -42.1110   14.4070   38.9870 N.am  116  SER116     -0.1950
    152  CA       -43.4140   14.8900   39.4170 C.3   116  SER116      0.1924
    153  C        -43.7110   16.2480   38.7680 C.2   116  SER116      0.2314
    154  O        -44.8410   16.5120   38.3430 O.2   116  SER116     -0.2863
    155  CB       -43.5430   14.9340   40.9600 C.3   116  SER116      0.2116
    156  OG       -42.5730   15.7750   41.5480 O.3   116  SER116     -0.2180
    157  N        -33.3100    3.0240   28.8000 N.3   139  VAL139     -0.1245
    158  CA       -34.5950    3.4830   29.2960 C.3   139  VAL139      0.1561
    159  C        -35.0040    4.7000   28.4940 C.2   139  VAL139      0.2260
    160  O        -34.1690    5.5750   28.2140 O.2   139  VAL139     -0.2867
    161  CB       -34.4690    3.9210   30.7680 C.3   139  VAL139      0.0252
    162  CG1      -35.7480    4.6420   31.2250 C.3   139  VAL139      0.0019
    163  CG2      -34.1930    2.7020   31.6420 C.3   139  VAL139      0.0019
    164  N        -37.8400    7.8570   28.2660 N.3   141  PHE141     -0.1241
    165  CA       -38.9930    8.6410   28.7080 C.3   141  PHE141      0.1605
    166  C        -39.6240    9.3330   27.5180 C.2   141  PHE141      0.2264
    167  O        -38.9420    9.9760   26.7290 O.2   141  PHE141     -0.2867
    168  CB       -38.5700    9.6820   29.7550 C.3   141  PHE141      0.0534
    169  CG       -38.3410    9.0970   31.1100 C.ar  141  PHE141     -0.0203
    170  CD1      -37.2200    8.3150   31.3530 C.ar  141  PHE141     -0.0042
    171  CD2      -39.3320    9.1770   32.0900 C.ar  141  PHE141     -0.0042
    172  CE1      -37.0300    7.7020   32.5890 C.ar  141  PHE141     -0.0003
    173  CE2      -39.1460    8.5770   33.3450 C.ar  141  PHE141     -0.0003
    174  CZ       -38.0170    7.8150   33.5860 C.ar  141  PHE141     -0.0000
@<TRIPOS>BOND
     1   167   166    2
     2    36    37    1
     3   166   165    1
     4    37    38    1
     5    37    40    1
     6    38    39    2
     7   160   159    2
     8   164   165    1
     9   159   158    1
    10   165   168    1
    11   157   158    1
    12    40    41    1
    13   158   161    1
    14     7     6    1
    15   168   169    1
    16    21    18    1
    17    41    42    2
    18    41    43   am
    19     5     6    1
    20     5     2    1
    21     6     8    1
    22   161   162    1
    23   161   163    1
    24   169   170   ar
    25   169   171   ar
    26     3     4    2
    27     3     2    1
    28   170   172   ar
    29    18    19    1
    30    18    17    1
    31     2     1    1
    32    20    19    2
    33   171   173   ar
    34    17    11   am
    35   172   174   ar
    36    55    52    1
    37    55    56    1
    38    44    45    1
    39    44    50    1
    40   173   174   ar
    41    52    51    1
    42    52    53    1
    43    51    46   am
    44    51    57    1
    45    47    46    2
    46    46    45    1
    47    11    12    2
    48    11    10    1
    49    56    57    1
    50    45    48    1
    51    33    34    2
    52    33    32    1
    53    35    32    1
    54     9    10    1
    55    50    49    1
    56    58    53   am
    57    58    59    1
    58    22    23    1
    59    53    54    2
    60    10    13    1
    61    13    14    1
    62    32    31    1
    63    65    63    1
    64    61    60    2
    65    31    24   am
    66   150   148    1
    67    63    62    1
    68    62    59    1
    69    62    64    1
    70    48    49    1
    71    59    60    1
    72    24    23    1
    73    24    25    2
    74    23    26    1
    75    16    14   am
    76    14    15    2
    77    81    79    1
    78   148   149    1
    79   148   147    1
    80   142   141    2
    81    26    27    1
    82   146   145    2
    83   144   147    1
    84   144   145    1
    85   144   143    1
    86    27    28    1
    87    79    78    1
    88   141   143   am
    89   141   140    1
    90   145   151   am
    91    28    29   ar
    92    28    30   ar
    93   154   153    2
    94   140   139    1
    95   115   114    1
    96   153   152    1
    97    78    80    1
    98    78    75    1
    99   151   152    1
   100    68    69    2
   101    68    67    1
   102   152   155    1
   103    76    77    2
   104    76    75    1
   105   114   113    1
   106   139   133   am
   107   134   133    2
   108    66    67    1
   109    75    74    1
   110    67    70    1
   111    70    71    1
   112   133   132    1
   113   155   156    1
   114   113   112    1
   115    71    72    1
   116    71    73    1
   117   132   131    1
   118   132   135    1
   119   105   104    1
   120   112   111    1
   121   131   129   am
   122   135   136    1
   123   125   124    1
   124    91    89   ar
   125    91    92   ar
   126    89    87   ar
   127   129   130    2
   128   129   128    1
   129   106   104    1
   130   104   101    1
   131    85    84    2
   132   111   108    1
   133   128   127    1
   134    92    90   ar
   135   100   101    1
   136   100    95   am
   137   136   138    1
   138   136   137    1
   139   127   122   am
   140    87    86    1
   141    87    88   ar
   142   124   126    1
   143   124   121    1
   144    98    97    1
   145   101   102    1
   146    86    83    1
   147    94    97    1
   148    94    95    1
   149    94    93    1
   150    84    93   am
   151    84    83    1
   152   107   102   am
   153   107   108    1
   154   102   103    2
   155   108   109    1
   156   120   121    1
   157   120   118   am
   158    97    99    1
   159    95    96    2
   160    90    88   ar
   161   117   118    1
   162   117   116    1
   163   122   121    1
   164   122   123    2
   165    83    82    1
   166   118   119    2
   167   109   110    2
