@<TRIPOS>MOLECULE
tmp/3a0uA00.pdb
 79 77 0 0 0
SMALL
GASTEIGER

@<TRIPOS>ATOM
      1  N         27.7940   -4.0850   85.9040 N.3     9  ASP9       -0.1239
      2  CA        28.1750   -5.4240   85.4010 C.3     9  ASP9        0.1674
      3  C         28.4680   -6.4400   86.5040 C.2     9  ASP9        0.2266
      4  O         28.5130   -7.6550   86.2510 O.2     9  ASP9       -0.2867
      5  CB        29.3660   -5.3440   84.4180 C.3     9  ASP9        0.1410
      6  CG        30.6130   -4.7580   85.0440 C.2     9  ASP9        0.3668
      7  OD1       30.5130   -3.7450   85.7790 O.co2   9  ASP9       -0.2456
      8  OD2       31.7290   -5.2830   84.7630 O.co2   9  ASP9       -0.2456
      9  N         30.1600    2.7820   84.9490 N.3    53  ILE53      -0.1231
     10  CA        30.8940    3.1340   83.7470 C.3    53  ILE53       0.1692
     11  C         31.5770    1.9240   83.1370 C.2    53  ILE53       0.2592
     12  O         31.3750    1.6380   81.9620 O.2    53  ILE53      -0.2718
     13  CB        31.9090    4.2670   84.0210 C.3    53  ILE53       0.0266
     14  CG1       31.1690    5.5760   84.3330 C.3    53  ILE53       0.0019
     15  CG2       32.8440    4.4220   82.8110 C.3    53  ILE53       0.0020
     16  CD1       32.0700    6.7550   84.6960 C.3    53  ILE53       0.0001
     17  N         32.4000    1.2130   83.9250 N.am   54  GLU54      -0.1966
     18  CA        33.1640    0.0960   83.3640 C.3    54  GLU54       0.1733
     19  C         32.3380   -1.1870   83.2680 C.2    54  GLU54       0.2616
     20  O         32.0280   -1.8480   84.2860 O.2    54  GLU54      -0.2715
     21  CB        34.4560   -0.1370   84.1530 C.3    54  GLU54       0.0429
     22  CG        35.3670    1.0630   84.0800 C.3    54  GLU54       0.1163
     23  CD        36.7510    0.7790   84.6540 C.2    54  GLU54       0.3649
     24  OE1       36.9410   -0.3000   85.2500 O.co2  54  GLU54      -0.2457
     25  OE2       37.5970    1.6740   84.5390 O.co2  54  GLU54      -0.2457
     26  N         32.0300   -1.5740   82.0200 N.am   55  MET55      -0.1964
     27  CA        31.2370   -2.7770   81.7600 C.3    55  MET55       0.1722
     28  C         31.7330   -3.4410   80.4910 C.2    55  MET55       0.2458
     29  O         32.2820   -2.7730   79.6470 O.2    55  MET55      -0.2730
     30  CB        29.7590   -2.4160   81.5500 C.3    55  MET55       0.0427
     31  CG        29.1120   -1.8180   82.8130 C.3    55  MET55       0.0599
     32  SD        27.3410   -1.4720   82.6940 S.3    55  MET55      -0.1393
     33  CE        27.3070   -0.0810   81.5860 C.3    55  MET55       0.0692
     34  N         31.5350   -4.7590   80.3740 N.am   56  PRO56      -0.2716
     35  CA        31.9010   -5.3970   79.1130 C.3    56  PRO56       0.1536
     36  C         30.9450   -4.8630   78.0410 C.2    56  PRO56       0.2599
     37  O         29.7480   -4.6780   78.3040 O.2    56  PRO56      -0.2715
     38  CB        31.6520   -6.8770   79.3910 C.3    56  PRO56       0.0310
     39  CG        31.6050   -7.0080   80.9150 C.3    56  PRO56       0.0237
     40  CD        30.9630   -5.7130   81.3380 C.3    56  PRO56       0.0939
     41  N         31.4630   -4.5660   76.8600 N.am   57  GLY57      -0.1941
     42  CA        30.6360   -3.9000   75.8540 C.3    57  GLY57       0.2014
     43  C         30.6630   -2.3910   76.0250 C.2    57  GLY57       0.2639
     44  O         31.6340   -1.8410   76.5520 O.2    57  GLY57      -0.2714
     45  N         29.6210   -1.6990   75.5760 N.am   58  ILE58      -0.1963
     46  CA        29.6070   -0.2370   75.6390 C.3    58  ILE58       0.1727
     47  C         29.7440    0.2650   77.0880 C.2    58  ILE58       0.2616
     48  O         29.1920   -0.3230   77.9960 O.2    58  ILE58      -0.2715
     49  CB        28.3800    0.4040   74.9430 C.3    58  ILE58       0.0290
     50  CG1       27.0400   -0.0670   75.5410 C.3    58  ILE58       0.0022
     51  CG2       28.4050    0.1000   73.4280 C.3    58  ILE58       0.0023
     52  CD1       25.8630    0.7370   74.9860 C.3    58  ILE58       0.0001
     53  N         30.5030    1.3290   77.2800 N.am   59  SER59      -0.1950
     54  CA        30.6440    1.8860   78.6270 C.3    59  SER59       0.1924
     55  C         29.4010    2.6540   79.1060 C.2    59  SER59       0.2314
     56  O         28.5570    3.1020   78.3220 O.2    59  SER59      -0.2863
     57  CB        31.8580    2.8030   78.6920 C.3    59  SER59       0.2116
     58  OG        31.5080    4.0820   78.2680 O.3    59  SER59      -0.2180
     59  N         29.0310    5.9280   77.3830 N.3    62  GLU62      -0.1245
     60  CA        28.3160    5.7980   76.0960 C.3    62  GLU62       0.1567
     61  C         26.7920    5.6730   76.3120 C.2    62  GLU62       0.2260
     62  O         25.9960    6.3610   75.6450 O.2    62  GLU62      -0.2867
     63  CB        28.8830    4.6700   75.2530 C.3    62  GLU62       0.0388
     64  CG        28.1970    4.5740   73.8850 C.3    62  GLU62       0.1160
     65  CD        28.9320    3.6570   72.8960 C.2    62  GLU62       0.3649
     66  OE1       30.0450    3.1260   73.1890 O.co2  62  GLU62      -0.2457
     67  OE2       28.3680    3.4750   71.7880 O.co2  62  GLU62      -0.2457
     68  N         36.9520    9.2770   85.6670 N.3    85  TYR85      -0.1241
     69  CA        36.0790    9.7650   84.5880 C.3    85  TYR85       0.1605
     70  C         35.3580   11.0620   84.9110 C.2    85  TYR85       0.2264
     71  O         34.6160   11.5790   84.0770 O.2    85  TYR85      -0.2867
     72  CB        35.0540    8.6940   84.2360 C.3    85  TYR85       0.0534
     73  CG        35.6750    7.3800   83.8610 C.ar   85  TYR85      -0.0201
     74  CD1       36.1910    7.1870   82.6020 C.ar   85  TYR85      -0.0009
     75  CD2       35.7460    6.3350   84.7800 C.ar   85  TYR85      -0.0009
     76  CE1       36.7950    5.9520   82.2400 C.ar   85  TYR85       0.0417
     77  CE2       36.3340    5.1070   84.4570 C.ar   85  TYR85       0.0417
     78  CZ        36.8690    4.9300   83.1700 C.ar   85  TYR85       0.1957
     79  OH        37.4260    3.7240   82.8060 O.3    85  TYR85      -0.2866
@<TRIPOS>BOND
     1    67    65   ar
     2    65    66   ar
     3    65    64    1
     4    51    49    1
     5    64    63    1
     6    49    50    1
     7    49    46    1
     8    52    50    1
     9    63    60    1
    10    45    46    1
    11    45    43   am
    12    46    47    1
    13    62    61    2
    14    42    43    1
    15    42    41    1
    16    43    44    2
    17    60    61    1
    18    60    59    1
    19    41    36   am
    20    47    53   am
    21    47    48    2
    22    53    54    1
    23    36    37    2
    24    36    35    1
    25    58    57    1
    26    56    55    2
    27    54    57    1
    28    54    55    1
    29    35    38    1
    30    35    34    1
    31    38    39    1
    32    29    28    2
    33    34    28   am
    34    34    40    1
    35    28    27    1
    36    39    40    1
    37    30    27    1
    38    30    31    1
    39    33    32    1
    40    27    26    1
    41    12    11    2
    42    26    19   am
    43    76    74   ar
    44    76    78   ar
    45    74    73   ar
    46    32    31    1
    47    79    78    1
    48    15    13    1
    49    11    10    1
    50    11    17   am
    51    78    77   ar
    52    19    18    1
    53    19    20    2
    54    18    17    1
    55    18    21    1
    56    10    13    1
    57    10     9    1
    58    73    72    1
    59    73    75   ar
    60    13    14    1
    61    71    70    2
    62    22    21    1
    63    22    23    1
    64    72    69    1
    65    14    16    1
    66     5     6    1
    67     5     2    1
    68    77    75   ar
    69    25    23   ar
    70    69    70    1
    71    69    68    1
    72    23    24   ar
    73     8     6   ar
    74     6     7   ar
    75     2     1    1
    76     2     3    1
    77     4     3    2
