@<TRIPOS>MOLECULE
tmp/3a0uA02.pdb
 110 107 0 0 0
SMALL
GASTEIGER

@<TRIPOS>ATOM
      1  N          8.4670    5.5180   93.0310 N.3     2  LYS2       -0.1245
      2  CA         9.4410    5.8780   92.0180 C.3     2  LYS2        0.1561
      3  C         10.1530    4.5940   91.5870 C.2     2  LYS2        0.2260
      4  O         10.3750    3.6710   92.4070 O.2     2  LYS2       -0.2867
      5  CB        10.4820    6.8570   92.5610 C.3     2  LYS2        0.0271
      6  CG         9.9000    8.1370   93.1920 C.3     2  LYS2        0.0035
      7  CD         9.5070    9.1170   92.1380 C.3     2  LYS2        0.0206
      8  CE         8.9530   10.3900   92.7790 C.3     2  LYS2        0.1093
      9  NZ         9.9480   11.0440   93.6750 N.3     2  LYS2       -0.1314
     10  N         15.6520    0.7260   79.3640 N.3    41  PHE41      -0.1227
     11  CA        15.3350    2.1230   79.5550 C.3    41  PHE41       0.1736
     12  C         14.3330    2.6620   78.5360 C.2    41  PHE41       0.2595
     13  O         13.3400    3.2860   78.9190 O.2    41  PHE41      -0.2718
     14  CB        16.5720    3.0290   79.5780 C.3    41  PHE41       0.0547
     15  CG        16.2470    4.4240   80.0020 C.ar   41  PHE41      -0.0202
     16  CD1       15.8700    5.3680   79.0470 C.ar   41  PHE41      -0.0042
     17  CD2       16.2810    4.7890   81.3530 C.ar   41  PHE41      -0.0042
     18  CE1       15.5270    6.6910   79.4340 C.ar   41  PHE41      -0.0003
     19  CE2       15.9290    6.0820   81.7650 C.ar   41  PHE41      -0.0003
     20  CZ        15.5620    7.0460   80.7920 C.ar   41  PHE41      -0.0000
     21  N         14.5930    2.4490   77.2510 N.am   42  PHE42      -0.1976
     22  CA        13.7160    3.0450   76.2170 C.3    42  PHE42       0.1639
     23  C         12.3390    2.3630   76.1510 C.2    42  PHE42       0.2290
     24  O         11.3350    2.9980   75.7730 O.2    42  PHE42      -0.2864
     25  CB        14.4050    3.0980   74.8430 C.3    42  PHE42       0.0560
     26  CG        15.5800    4.0340   74.7940 C.ar   42  PHE42      -0.0200
     27  CD1       15.4730    5.3550   75.2450 C.ar   42  PHE42      -0.0042
     28  CD2       16.8050    3.5920   74.3000 C.ar   42  PHE42      -0.0042
     29  CE1       16.5880    6.2110   75.2350 C.ar   42  PHE42      -0.0003
     30  CE2       17.9250    4.4510   74.2590 C.ar   42  PHE42      -0.0003
     31  CZ        17.8070    5.7600   74.7240 C.ar   42  PHE42      -0.0000
     32  N         10.9080    1.0910   78.8920 N.3    44  GLY44      -0.1210
     33  CA        10.3050    1.2820   80.1920 C.3    44  GLY44       0.1956
     34  C          9.9810    2.7130   80.5570 C.2    44  GLY44       0.2612
     35  O          9.9180    3.6170   79.7150 O.2    44  GLY44      -0.2717
     36  N          9.7650    2.9320   81.8510 N.am   45  ASN45      -0.1960
     37  CA         9.2670    4.2240   82.3170 C.3    45  ASN45       0.1819
     38  C          9.9130    4.5940   83.6560 C.2    45  ASN45       0.2621
     39  O          9.2380    4.7790   84.6930 O.2    45  ASN45      -0.2715
     40  CB         7.7330    4.1980   82.4100 C.3    45  ASN45       0.1195
     41  CG         7.0740    3.9880   81.0430 C.2    45  ASN45       0.2630
     42  OD1        6.9890    4.9140   80.2430 O.2    45  ASN45      -0.2716
     43  ND2        6.6520    2.7680   80.7680 N.am   45  ASN45      -0.0877
     44  N         11.2290    4.7470   83.6160 N.am   46  TYR46      -0.1960
     45  CA        12.0090    4.9540   84.8430 C.3    46  TYR46       0.1771
     46  C         12.1280    6.4060   85.2140 C.2    46  TYR46       0.2619
     47  O         12.2290    7.2700   84.3470 O.2    46  TYR46      -0.2715
     48  CB        13.4130    4.3570   84.6660 C.3    46  TYR46       0.0574
     49  CG        13.3770    2.8790   84.4360 C.ar   46  TYR46      -0.0198
     50  CD1       13.2150    1.9760   85.5000 C.ar   46  TYR46      -0.0009
     51  CD2       13.4790    2.3650   83.1520 C.ar   46  TYR46      -0.0009
     52  CE1       13.1380    0.6040   85.3020 C.ar   46  TYR46       0.0417
     53  CE2       13.4190    0.9660   82.9430 C.ar   46  TYR46       0.0417
     54  CZ        13.2420    0.0970   84.0170 C.ar   46  TYR46       0.1957
     55  OH        13.1740   -1.2580   83.7930 O.3    46  TYR46      -0.2866
     56  N         12.1460    6.6770   86.5120 N.am   47  ASP47      -0.1971
     57  CA        12.3260    8.0270   87.0130 C.3    47  ASP47       0.1709
     58  C         13.7830    8.4470   87.0470 C.2    47  ASP47       0.2293
     59  O         14.1040    9.6380   86.9700 O.2    47  ASP47      -0.2864
     60  CB        11.7450    8.1380   88.4190 C.3    47  ASP47       0.1436
     61  CG        10.2380    7.9410   88.4160 C.2    47  ASP47       0.3671
     62  OD1        9.5570    8.8040   87.8170 O.co2  47  ASP47      -0.2456
     63  OD2        9.7840    6.9240   88.9680 O.co2  47  ASP47      -0.2456
     64  N         16.1820   11.0210   75.5350 N.3    71  LYS71      -0.1245
     65  CA        15.2610   11.3610   76.6080 C.3    71  LYS71       0.1561
     66  C         15.8200   12.5980   77.2770 C.2    71  LYS71       0.2260
     67  O         16.5640   12.4950   78.2510 O.2    71  LYS71      -0.2867
     68  CB        15.1080   10.1800   77.5830 C.3    71  LYS71       0.0271
     69  CG        13.9950   10.3580   78.5980 C.3    71  LYS71       0.0035
     70  CD        12.6360   10.1540   77.9050 C.3    71  LYS71       0.0206
     71  CE        11.4510   10.3600   78.8460 C.3    71  LYS71       0.1093
     72  NZ        11.4420   11.6670   79.5730 N.3    71  LYS71      -0.1314
     73  N         14.9120   14.9740   79.2340 N.3    73  ASP73      -0.1225
     74  CA        14.7220   15.2710   80.6430 C.3    73  ASP73       0.1805
     75  C         15.0660   14.1020   81.5690 C.2    73  ASP73       0.2598
     76  O         14.7000   14.1320   82.7440 O.2    73  ASP73      -0.2718
     77  CB        13.2820   15.7240   80.8880 C.3    73  ASP73       0.1424
     78  CG        12.9870   17.1110   80.3200 C.2    73  ASP73       0.3668
     79  OD1       13.9350   17.9180   80.1000 O.co2  73  ASP73      -0.2456
     80  OD2       11.7850   17.3920   80.0970 O.co2  73  ASP73      -0.2456
     81  N         15.7520   13.0740   81.0500 N.am   74  ALA74      -0.1966
     82  CA        16.1790   11.9250   81.8850 C.3    74  ALA74       0.1728
     83  C         16.9290   12.4030   83.1140 C.2    74  ALA74       0.2616
     84  O         17.6040   13.4410   83.0680 O.2    74  ALA74      -0.2715
     85  CB        17.0890   11.0180   81.0900 C.3    74  ALA74       0.0334
     86  N         16.8170   11.6320   84.2010 N.am   75  LYS75      -0.1977
     87  CA        17.6680   11.8220   85.3860 C.3    75  LYS75       0.1596
     88  C         18.6810   10.6760   85.3990 C.2    75  LYS75       0.2287
     89  O         18.3000    9.5110   85.3960 O.2    75  LYS75      -0.2864
     90  CB        16.8410   11.8330   86.6740 C.3    75  LYS75       0.0298
     91  CG        15.7550   12.9140   86.7050 C.3    75  LYS75       0.0038
     92  CD        16.3410   14.2800   86.6240 C.3    75  LYS75       0.0206
     93  CE        15.2590   15.3390   86.4550 C.3    75  LYS75       0.1093
     94  NZ        15.9400   16.6520   86.3180 N.3    75  LYS75      -0.1314
     95  N         17.5020   14.3040   92.9130 N.3   114  LEU114     -0.1231
     96  CA        17.1190   14.2270   91.4960 C.3   114  LEU114      0.1693
     97  C         15.6650   13.8620   91.2960 C.2   114  LEU114      0.2591
     98  O         15.0490   14.2610   90.2850 O.2   114  LEU114     -0.2718
     99  CB        18.0010   13.2360   90.7240 C.3   114  LEU114      0.0284
    100  CG        19.3950   13.7320   90.3620 C.3   114  LEU114      0.0019
    101  CD1       20.0600   12.6930   89.4700 C.3   114  LEU114      0.0001
    102  CD2       19.3570   15.0950   89.6730 C.3   114  LEU114      0.0001
    103  N         15.1320   13.0920   92.2380 N.am  115  LEU115     -0.1980
    104  CA        13.7460   12.6630   92.1960 C.3   115  LEU115      0.1596
    105  C         12.8630   13.7400   92.8320 C.2   115  LEU115      0.2287
    106  O         11.6560   13.7270   92.6290 O.2   115  LEU115     -0.2864
    107  CB        13.5590   11.3070   92.9000 C.3   115  LEU115      0.0297
    108  CG        14.2750   10.0690   92.3390 C.3   115  LEU115      0.0022
    109  CD1       14.2600    8.9230   93.3540 C.3   115  LEU115      0.0001
    110  CD2       13.7550    9.6140   90.9580 C.3   115  LEU115      0.0001
@<TRIPOS>BOND
     1    30    28   ar
     2    30    31   ar
     3    28    26   ar
     4    31    29   ar
     5    26    25    1
     6    26    27   ar
     7    25    22    1
     8    29    27   ar
     9    64    65    1
    10    24    23    2
    11    23    22    1
    12    22    21    1
    13    65    66    1
    14    65    68    1
    15    21    12   am
    16    66    67    2
    17    68    69    1
    18    70    69    1
    19    70    71    1
    20    12    13    2
    21    12    11    1
    22    71    72    1
    23    32    33    1
    24    16    18   ar
    25    16    15   ar
    26    73    74    1
    27    10    11    1
    28    18    20   ar
    29    11    14    1
    30    14    15    1
    31    35    34    2
    32    15    17   ar
    33    80    78   ar
    34    79    78   ar
    35    33    34    1
    36    42    41    2
    37    78    77    1
    38    34    36   am
    39    74    77    1
    40    74    75    1
    41    43    41   am
    42    20    19   ar
    43    41    40    1
    44    81    75   am
    45    81    82    1
    46    85    82    1
    47    17    19   ar
    48    75    76    2
    49    36    37    1
    50    82    83    1
    51    37    40    1
    52    37    38    1
    53    53    51   ar
    54    53    54   ar
    55    84    83    2
    56    83    86   am
    57    51    49   ar
    58    44    38   am
    59    44    45    1
    60    38    39    2
    61    55    54    1
    62    54    52   ar
    63    86    87    1
    64    47    46    2
    65    49    48    1
    66    49    50   ar
    67    48    45    1
    68    45    46    1
    69    46    56   am
    70    52    50   ar
    71    87    88    1
    72    87    90    1
    73    89    88    2
    74    94    93    1
    75    93    92    1
    76    56    57    1
    77    92    91    1
    78    90    91    1
    79    59    58    2
    80    57    58    1
    81    57    60    1
    82    62    61   ar
    83    61    60    1
    84    61    63   ar
    85   101   100    1
    86   102   100    1
    87    98    97    2
    88   100    99    1
    89    99    96    1
    90   110   108    1
    91    97    96    1
    92    97   103   am
    93    96    95    1
    94     3     2    1
    95     3     4    2
    96     2     5    1
    97     2     1    1
    98     7     8    1
    99     7     6    1
   100   104   103    1
   101   104   105    1
   102   104   107    1
   103   108   107    1
   104   108   109    1
   105     5     6    1
   106   106   105    2
   107     8     9    1
