@<TRIPOS>MOLECULE
tmp/3a14B01.pdb
 87 79 0 0 0
SMALL
GASTEIGER

@<TRIPOS>ATOM
      1  N         21.9880   26.5410   23.8990 N.3   142  GLU142     -0.1245
      2  CA        21.7450   26.7550   25.3430 C.3   142  GLU142      0.1567
      3  C         21.6520   25.4120   26.0680 C.2   142  GLU142      0.2260
      4  O         22.2950   25.2240   27.1000 O.2   142  GLU142     -0.2867
      5  CB        20.4760   27.5800   25.6090 C.3   142  GLU142      0.0388
      6  CG        20.4770   28.9520   24.9240 C.3   142  GLU142      0.1160
      7  CD        21.1300   30.0250   25.7660 C.2   142  GLU142      0.3649
      8  OE1       20.8630   30.0620   26.9790 O.co2 142  GLU142     -0.2457
      9  OE2       21.8740   30.8600   25.2150 O.co2 142  GLU142     -0.2457
     10  N         20.5850   32.1720   28.7030 N.3   160  THR160     -0.1203
     11  CA        20.8520   33.5330   28.2580 C.3   160  THR160      0.1994
     12  C         20.1000   33.8310   26.9660 C.2   160  THR160      0.2618
     13  O         19.8010   32.9160   26.1790 O.2   160  THR160     -0.2717
     14  CB        22.3700   33.7730   28.0390 C.3   160  THR160      0.1784
     15  OG1       22.8710   32.7520   27.1860 O.3   160  THR160     -0.2211
     16  CG2       23.1360   33.7170   29.3790 C.3   160  THR160      0.0376
     17  N         19.8230   35.1150   26.7510 N.am  161  ALA161     -0.1965
     18  CA        19.0590   35.5700   25.5780 C.3   161  ALA161      0.1728
     19  C         19.7000   36.8310   25.0450 C.2   161  ALA161      0.2617
     20  O         20.1270   37.6790   25.8200 O.2   161  ALA161     -0.2715
     21  CB        17.5990   35.8850   25.9920 C.3   161  ALA161      0.0334
     22  N         19.7550   36.9670   23.7310 N.am  162  SER162     -0.1936
     23  CA        20.2510   38.2100   23.1170 C.3   162  SER162      0.2055
     24  C         19.3200   39.3830   23.4260 C.2   162  SER162      0.2643
     25  O         19.7440   40.5330   23.4530 O.2   162  SER162     -0.2714
     26  CB        20.3770   38.0230   21.6070 C.3   162  SER162      0.2130
     27  OG        19.0970   37.8750   20.9870 O.3   162  SER162     -0.2179
     28  N         18.0450   39.0900   23.6890 N.am  163  GLY163     -0.1954
     29  CA        17.0310   40.1260   23.7510 C.3   163  GLY163      0.1869
     30  C         16.4230   40.4570   22.3960 C.2   163  GLY163      0.2309
     31  O         15.4010   41.1640   22.3220 O.2   163  GLY163     -0.2863
     32  N         20.5310   32.3090   10.7280 N.3   185  MET185     -0.1245
     33  CA        19.4860   31.9980   11.7400 C.3   185  MET185      0.1570
     34  C         18.1900   31.5160   11.0750 C.2   185  MET185      0.2261
     35  O         17.7410   30.3950   11.3310 O.2   185  MET185     -0.2867
     36  CB        19.2400   33.2160   12.6460 C.3   185  MET185      0.0387
     37  CG        18.5440   32.8960   13.9680 C.3   185  MET185      0.0595
     38  SD        18.5540   34.2490   15.1730 S.3   185  MET185     -0.1393
     39  CE        20.1040   33.9210   16.0220 C.3   185  MET185      0.0692
     40  N         12.9930   32.0200   13.4710 N.3   189  ILE189     -0.1245
     41  CA        13.8510   32.0180   14.6460 C.3   189  ILE189      0.1561
     42  C         14.2030   33.4370   15.0340 C.2   189  ILE189      0.2260
     43  O         14.2440   33.7660   16.2090 O.2   189  ILE189     -0.2867
     44  CB        15.1430   31.1940   14.4330 C.3   189  ILE189      0.0252
     45  CG1       14.8250   29.7640   13.9270 C.3   189  ILE189      0.0019
     46  CG2       15.9340   31.1200   15.7640 C.3   189  ILE189      0.0019
     47  CD1       14.5010   29.6780   12.3570 C.3   189  ILE189      0.0001
     48  N         13.1180   35.2010   18.4640 N.3   193  SER193     -0.1217
     49  CA        14.1310   35.8160   19.3160 C.3   193  SER193      0.1889
     50  C         13.7410   37.2400   19.6930 C.2   193  SER193      0.2288
     51  O         14.1040   37.7430   20.7520 O.2   193  SER193     -0.2866
     52  CB        15.4760   35.7880   18.6220 C.3   193  SER193      0.2089
     53  OG        15.8780   34.4270   18.5340 O.3   193  SER193     -0.2183
     54  N         11.0360   36.9470   22.2840 N.3   196  MET196     -0.1245
     55  CA        11.5030   35.9950   23.3000 C.3   196  MET196      0.1570
     56  C         10.6200   34.7520   23.4530 C.2   196  MET196      0.2261
     57  O         10.7180   34.0220   24.4280 O.2   196  MET196     -0.2867
     58  CB        11.8310   36.6840   24.6340 C.3   196  MET196      0.0387
     59  CG        13.2160   37.3990   24.5190 C.3   196  MET196      0.0595
     60  SD        13.7340   38.1210   26.0520 S.3   196  MET196     -0.1393
     61  CE        13.9900   36.7000   27.0900 C.3   196  MET196      0.0692
     62  N         11.1650   32.2920   21.5290 N.3   198  ASN198     -0.1225
     63  CA        12.1630   31.2210   21.3890 C.3   198  ASN198      0.1785
     64  C         12.6940   30.8230   22.7640 C.2   198  ASN198      0.2597
     65  O         12.8300   29.6320   23.0670 O.2   198  ASN198     -0.2718
     66  CB        13.2670   31.5610   20.3700 C.3   198  ASN198      0.1169
     67  CG        14.1580   30.3620   20.0440 C.2   198  ASN198      0.2627
     68  OD1       15.3340   30.3110   20.4740 O.2   198  ASN198     -0.2716
     69  ND2       13.6220   29.3970   19.2720 N.am  198  ASN198     -0.0877
     70  N         12.9520   31.8150   23.6180 N.am  199  LYS199     -0.1980
     71  CA        13.3530   31.5400   25.0070 C.3   199  LYS199      0.1596
     72  C         12.2800   30.8580   25.8180 C.2   199  LYS199      0.2287
     73  O         12.6120   30.0650   26.6900 O.2   199  LYS199     -0.2864
     74  CB        13.7320   32.8220   25.7560 C.3   199  LYS199      0.0298
     75  CG        15.1140   33.3200   25.5340 C.3   199  LYS199      0.0038
     76  CD        16.1900   32.2620   25.7040 C.3   199  LYS199      0.0206
     77  CE        17.1240   32.5260   24.5820 C.3   199  LYS199      0.1093
     78  NZ        18.2140   31.5850   24.3700 N.3   199  LYS199     -0.1314
     79  N         12.6630   27.3410   24.8580 N.3   202  GLU202     -0.1245
     80  CA        13.8870   26.8070   25.5010 C.3   202  GLU202      0.1567
     81  C         13.7210   26.5210   26.9990 C.2   202  GLU202      0.2260
     82  O         14.3220   25.5680   27.5190 O.2   202  GLU202     -0.2867
     83  CB        15.0960   27.7170   25.2470 C.3   202  GLU202      0.0388
     84  CG        15.5420   27.7290   23.7720 C.3   202  GLU202      0.1160
     85  CD        16.8290   28.5530   23.5170 C.2   202  GLU202      0.3649
     86  OE1       17.2370   29.3040   24.4160 O.co2 202  GLU202     -0.2457
     87  OE2       17.4300   28.4350   22.4110 O.co2 202  GLU202     -0.2457
@<TRIPOS>BOND
     1    32    33    1
     2    34    35    2
     3    34    33    1
     4    33    36    1
     5    47    45    1
     6    36    37    1
     7    40    41    1
     8    45    44    1
     9    37    38    1
    10    44    41    1
    11    44    46    1
    12    41    42    1
    13    42    43    2
    14    38    39    1
    15    48    49    1
    16    53    52    1
    17    52    49    1
    18    69    67   am
    19    49    50    1
    20    50    51    2
    21    67    66    1
    22    67    68    2
    23    66    63    1
    24    27    26    1
    25    63    62    1
    26    63    64    1
    27    26    23    1
    28    54    55    1
    29    31    30    2
    30    30    29    1
    31    87    85   ar
    32    64    65    2
    33    64    70   am
    34    23    24    1
    35    23    22    1
    36    55    56    1
    37    55    58    1
    38    24    25    2
    39    24    28   am
    40    56    57    2
    41    85    84    1
    42    85    86   ar
    43    70    71    1
    44    28    29    1
    45    22    19   am
    46    84    83    1
    47     1     2    1
    48    78    77    1
    49    59    58    1
    50    59    60    1
    51    77    76    1
    52    79    80    1
    53     6     5    1
    54     6     7    1
    55    71    74    1
    56    71    72    1
    57    19    18    1
    58    19    20    2
    59     9     7   ar
    60    83    80    1
    61     2     5    1
    62     2     3    1
    63    80    81    1
    64    75    76    1
    65    75    74    1
    66    18    21    1
    67    18    17    1
    68     7     8   ar
    69    72    73    2
    70    60    61    1
    71     3     4    2
    72    13    12    2
    73    17    12   am
    74    12    11    1
    75    81    82    2
    76    15    14    1
    77    14    11    1
    78    14    16    1
    79    11    10    1
