@<TRIPOS>MOLECULE
tmp/3a1iA00.pdb
 105 100 0 0 0
SMALL
GASTEIGER

@<TRIPOS>ATOM
      1  N        -15.7770    5.6260  -11.4200 N.3   144  CYS144     -0.1221
      2  CA       -17.0680    5.4460  -10.7550 C.3   144  CYS144      0.1808
      3  C        -17.2740    6.0360   -9.3530 C.2   144  CYS144      0.2601
      4  O        -18.3270    5.8200   -8.7480 O.2   144  CYS144     -0.2717
      5  CB       -17.4140    3.9510  -10.7100 C.3   144  CYS144      0.0970
      6  SG       -17.5260    3.1350  -12.3220 S.3   144  CYS144     -0.0800
      7  N        -16.3020    6.7710   -8.8200 N.am  145  PHE145     -0.1962
      8  CA       -16.5080    7.3290   -7.4860 C.3   145  PHE145      0.1771
      9  C        -17.2180    8.6800   -7.5490 C.2   145  PHE145      0.2620
     10  O        -16.6680    9.7110   -7.1520 O.2   145  PHE145     -0.2715
     11  CB       -15.1880    7.4630   -6.7180 C.3   145  PHE145      0.0574
     12  CG       -15.3040    7.0650   -5.2730 C.ar  145  PHE145     -0.0200
     13  CD1      -14.8960    5.8010   -4.8480 C.ar  145  PHE145     -0.0042
     14  CD2      -15.9100    7.9190   -4.3510 C.ar  145  PHE145     -0.0042
     15  CE1      -15.0990    5.3870   -3.5250 C.ar  145  PHE145     -0.0003
     16  CE2      -16.1200    7.5170   -3.0250 C.ar  145  PHE145     -0.0003
     17  CZ       -15.7140    6.2480   -2.6130 C.ar  145  PHE145     -0.0000
     18  N        -18.4520    8.6560   -8.0460 N.am  146  SER146     -0.1936
     19  CA       -19.2600    9.8620   -8.1730 C.3   146  SER146      0.2055
     20  C        -20.7440    9.5250   -8.3210 C.2   146  SER146      0.2643
     21  O        -21.1160    8.6370   -9.0950 O.2   146  SER146     -0.2714
     22  CB       -18.7950   10.6790   -9.3840 C.3   146  SER146      0.2130
     23  OG       -19.6380   11.7990   -9.6020 O.3   146  SER146     -0.2179
     24  N        -21.5800   10.2410   -7.5700 N.am  147  GLY147     -0.1954
     25  CA       -23.0150   10.0250   -7.6270 C.3   147  GLY147      0.1869
     26  C        -23.6910   10.9370   -8.6390 C.2   147  GLY147      0.2309
     27  O        -24.9160   10.9120   -8.7840 O.2   147  GLY147     -0.2863
     28  N        -25.2180    9.4130  -11.6950 N.3   169  GLY169     -0.1210
     29  CA       -24.0340    8.5940  -11.8700 C.3   169  GLY169      0.1956
     30  C        -23.7500    7.7570  -10.6450 C.2   169  GLY169      0.2612
     31  O        -24.6360    7.6230   -9.9270 O.2   169  GLY169     -0.2717
     32  N        -22.8540    6.7900  -10.7200 N.am  170  SER170     -0.1952
     33  CA       -21.7940    6.7370  -11.8580 C.3   170  SER170      0.1924
     34  C        -22.0920    6.1450  -13.1640 C.2   170  SER170      0.2314
     35  O        -21.2620    6.2980  -14.0190 O.2   170  SER170     -0.2863
     36  CB       -20.4880    6.1230  -11.3010 C.3   170  SER170      0.2116
     37  OG       -20.4680    4.7000  -11.3730 O.3   170  SER170     -0.2180
     38  N        -21.8700    0.8430   -6.3780 N.3   191  GLN191     -0.1231
     39  CA       -21.0090    0.7160   -5.2000 C.3   191  GLN191      0.1698
     40  C        -21.5790    1.5720   -4.0720 C.2   191  GLN191      0.2593
     41  O        -21.4410    1.2390   -2.8950 O.2   191  GLN191     -0.2718
     42  CB       -19.5820    1.2040   -5.4870 C.3   191  GLN191      0.0381
     43  CG       -18.6360    0.1750   -6.0690 C.3   191  GLN191      0.0905
     44  CD       -18.9790   -0.1740   -7.4890 C.2   191  GLN191      0.2608
     45  OE1      -19.6490    0.5970   -8.1770 O.2   191  GLN191     -0.2717
     46  NE2      -18.5090   -1.3330   -7.9510 N.am  191  GLN191     -0.0878
     47  N        -22.1890    2.6920   -4.4540 N.am  192  GLY192     -0.1942
     48  CA       -22.7960    3.5950   -3.4970 C.3   192  GLY192      0.2014
     49  C        -24.1410    4.0760   -4.0120 C.2   192  GLY192      0.2639
     50  O        -24.7610    4.9590   -3.4130 O.2   192  GLY192     -0.2714
     51  N        -24.5780    3.5040   -5.1370 N.am  193  GLY193     -0.1939
     52  CA       -25.8560    3.8650   -5.7370 C.3   193  GLY193      0.2014
     53  C        -25.8090    4.1320   -7.2380 C.2   193  GLY193      0.2638
     54  O        -26.7910    4.6060   -7.8200 O.2   193  GLY193     -0.2714
     55  N        -24.6870    3.8010   -7.8740 N.am  194  ALA194     -0.1977
     56  CA       -24.4920    4.0590   -9.3030 C.3   194  ALA194      0.1597
     57  C        -25.5290    3.4940  -10.2780 C.2   194  ALA194      0.2287
     58  O        -25.6110    3.9530  -11.4160 O.2   194  ALA194     -0.2864
     59  CB       -23.0890    3.6210   -9.7180 C.3   194  ALA194      0.0319
     60  N        -29.1910    5.6790   -8.6820 N.3   197  ILE197     -0.1245
     61  CA       -29.1410    7.1260   -8.8230 C.3   197  ILE197      0.1561
     62  C        -29.3930    7.6410  -10.2400 C.2   197  ILE197      0.2260
     63  O        -30.3170    8.4310  -10.4530 O.2   197  ILE197     -0.2867
     64  CB       -27.7960    7.6790   -8.3120 C.3   197  ILE197      0.0252
     65  CG1      -27.6880    7.4550   -6.8030 C.3   197  ILE197      0.0019
     66  CG2      -27.6850    9.1590   -8.6260 C.3   197  ILE197      0.0019
     67  CD1      -26.3190    7.7970   -6.2290 C.3   197  ILE197      0.0001
     68  N        -13.9830   -1.6590   -7.1460 N.3   222  ILE222     -0.1245
     69  CA       -13.7270   -0.4460   -6.3800 C.3   222  ILE222      0.1561
     70  C        -13.3760   -0.9330   -4.9760 C.2   222  ILE222      0.2260
     71  O        -12.2790   -0.6800   -4.4800 O.2   222  ILE222     -0.2867
     72  CB       -14.9440    0.4790   -6.3280 C.3   222  ILE222      0.0252
     73  CG1      -15.2000    1.0640   -7.7160 C.3   222  ILE222      0.0019
     74  CG2      -14.6960    1.6080   -5.3310 C.3   222  ILE222      0.0019
     75  CD1      -16.2530    2.1570   -7.7230 C.3   222  ILE222      0.0001
     76  N        -20.5460    2.6290    5.5710 N.3   327  TRP327     -0.1241
     77  CA       -20.2550    2.4590    4.1520 C.3   327  TRP327      0.1605
     78  C        -19.0790    3.3550    3.7760 C.2   327  TRP327      0.2264
     79  O        -18.1120    2.9090    3.1520 O.2   327  TRP327     -0.2867
     80  CB       -21.4630    2.8750    3.2990 C.3   327  TRP327      0.0550
     81  CG       -21.1570    2.9370    1.8200 C.ar  327  TRP327      0.0003
     82  CD1      -21.1990    1.8980    0.9260 C.ar  327  TRP327      0.0946
     83  CD2      -20.6960    4.0820    1.0790 C.ar  327  TRP327      0.0152
     84  NE1      -20.7930    2.3260   -0.3150 N.ar  327  TRP327     -0.2442
     85  CE2      -20.4760    3.6580   -0.2530 C.ar  327  TRP327      0.0810
     86  CE3      -20.4470    5.4220    1.4120 C.ar  327  TRP327      0.0012
     87  CZ2      -20.0130    4.5270   -1.2550 C.ar  327  TRP327      0.0191
     88  CZ3      -19.9840    6.2920    0.4110 C.ar  327  TRP327      0.0001
     89  CH2      -19.7710    5.8350   -0.9050 C.ar  327  TRP327      0.0015
     90  N        -21.4790   13.7800   -4.0600 N.3   446  LEU446     -0.1245
     91  CA       -21.5830   12.8020   -2.9780 C.3   446  LEU446      0.1561
     92  C        -22.6990   13.0660   -1.9740 C.2   446  LEU446      0.2260
     93  O        -22.8520   12.3260   -1.0000 O.2   446  LEU446     -0.2867
     94  CB       -20.2460   12.7240   -2.2270 C.3   446  LEU446      0.0270
     95  CG       -19.1450   11.7630   -2.7030 C.3   446  LEU446      0.0019
     96  CD1      -18.9570   11.8410   -4.2070 C.3   446  LEU446      0.0001
     97  CD2      -17.8520   12.1010   -1.9770 C.3   446  LEU446      0.0001
     98  N        -26.1670   10.2350   -2.0040 N.3   449  ILE449     -0.1245
     99  CA       -26.0320    8.7920   -1.8260 C.3   449  ILE449      0.1561
    100  C        -26.4310    8.3000   -0.4380 C.2   449  ILE449      0.2260
    101  O        -26.1850    7.1440   -0.0980 O.2   449  ILE449     -0.2867
    102  CB       -24.5800    8.3420   -2.0930 C.3   449  ILE449      0.0252
    103  CG1      -23.6470    8.9710   -1.0540 C.3   449  ILE449      0.0019
    104  CG2      -24.1520    8.7540   -3.5030 C.3   449  ILE449      0.0019
    105  CD1      -22.1890    8.6090   -1.2370 C.3   449  ILE449      0.0001
@<TRIPOS>BOND
     1    35    34    2
     2    34    33    1
     3     6     5    1
     4    29    28    1
     5    29    30    1
     6    33    36    1
     7    33    32    1
     8     1     2    1
     9    58    57    2
    10    37    36    1
    11     2     5    1
    12     2     3    1
    13    32    30   am
    14    30    31    2
    15    63    62    2
    16    57    56    1
    17    62    61    1
    18    59    56    1
    19    23    22    1
    20    22    19    1
    21     3     7   am
    22     3     4    2
    23    56    55    1
    24    21    20    2
    25    61    60    1
    26    61    64    1
    27     7     8    1
    28    27    26    2
    29    26    25    1
    30    66    64    1
    31    20    19    1
    32    20    24   am
    33    64    65    1
    34    45    44    2
    35    19    18    1
    36    18     9   am
    37    46    44   am
    38    55    53   am
    39    54    53    2
    40    75    73    1
    41    73    72    1
    42    25    24    1
    43     9     8    1
    44     9    10    2
    45    44    43    1
    46     8    11    1
    47    53    52    1
    48    68    69    1
    49    65    67    1
    50    11    12    1
    51    69    72    1
    52    69    70    1
    53    38    39    1
    54    72    74    1
    55    43    42    1
    56    52    51    1
    57    42    39    1
    58    12    13   ar
    59    12    14   ar
    60    39    40    1
    61    51    49   am
    62    70    71    2
    63    13    15   ar
    64    47    40   am
    65    47    48    1
    66    14    16   ar
    67    96    95    1
    68    40    41    2
    69    90    91    1
    70    49    48    1
    71    49    50    2
    72    15    17   ar
    73   104   102    1
    74    16    17   ar
    75    91    94    1
    76    91    92    1
    77    95    94    1
    78    95    97    1
    79   102    99    1
    80   102   103    1
    81    98    99    1
    82    92    93    2
    83    99   100    1
    84    87    89   ar
    85    87    85   ar
    86   105   103    1
    87    89    88   ar
    88   100   101    2
    89    84    85   ar
    90    84    82   ar
    91    85    83   ar
    92    88    86   ar
    93    82    81   ar
    94    83    86   ar
    95    83    81   ar
    96    81    80    1
    97    79    78    2
    98    80    77    1
    99    78    77    1
   100    77    76    1
