@<TRIPOS>MOLECULE
tmp/3a1jA00.pdb
 102 99 0 0 0
SMALL
GASTEIGER

@<TRIPOS>ATOM
      1  N         35.1140   46.9920   45.4680 N.3    38  ARG38      -0.1245
      2  CA        35.3380   47.7430   46.6820 C.3    38  ARG38       0.1563
      3  C         35.6100   49.2050   46.4280 C.2    38  ARG38       0.2260
      4  O         36.0550   49.5860   45.3440 O.2    38  ARG38      -0.2867
      5  CB        36.5420   47.1600   47.4330 C.3    38  ARG38       0.0307
      6  CG        36.5140   45.6550   47.6520 C.3    38  ARG38       0.0489
      7  CD        37.8470   45.1590   48.2450 C.3    38  ARG38       0.2205
      8  NE        37.9290   43.6970   48.2620 N.pl3  38  ARG38      -0.0865
      9  CZ        38.9040   42.9890   48.8280 C.cat  38  ARG38       0.5346
     10  NH1       39.9160   43.5850   49.4440 N.pl3  38  ARG38       0.1354
     11  NH2       38.8650   41.6680   48.7800 N.pl3  38  ARG38       0.1354
     12  N         34.5300   52.3690   54.2560 N.3    47  TYR47      -0.1241
     13  CA        34.9400   51.2660   53.4030 C.3    47  TYR47       0.1605
     14  C         33.7280   50.3980   53.0490 C.2    47  TYR47       0.2264
     15  O         32.9320   50.0450   53.9140 O.2    47  TYR47      -0.2867
     16  CB        36.0010   50.4310   54.1300 C.3    47  TYR47       0.0534
     17  CG        36.3830   49.1610   53.4140 C.ar   47  TYR47      -0.0201
     18  CD1       37.3570   49.1610   52.4160 C.ar   47  TYR47      -0.0009
     19  CD2       35.7340   47.9600   53.7010 C.ar   47  TYR47      -0.0009
     20  CE1       37.6750   47.9880   51.7130 C.ar   47  TYR47       0.0417
     21  CE2       36.0360   46.7870   53.0070 C.ar   47  TYR47       0.0417
     22  CZ        37.0060   46.8070   52.0110 C.ar   47  TYR47       0.1957
     23  OH        37.2710   45.6550   51.2930 O.3    47  TYR47      -0.2866
     24  N         32.3580   46.9370   50.5100 N.3    49  CYS49      -0.1235
     25  CA        32.7360   45.8200   49.6490 C.3    49  CYS49       0.1677
     26  C         31.5840   44.8690   49.3630 C.2    49  CYS49       0.2270
     27  O         30.8280   44.5000   50.2610 O.2    49  CYS49      -0.2867
     28  CB        33.8920   45.0150   50.2550 C.3    49  CYS49       0.0956
     29  SG        34.3930   43.5760   49.2230 S.3    49  CYS49      -0.0801
     30  N         30.8950   41.1730   47.3750 N.3    51  LEU51      -0.1245
     31  CA        31.5560   40.0020   46.8060 C.3    51  LEU51       0.1561
     32  C         30.4930   39.1440   46.1570 C.2    51  LEU51       0.2260
     33  O         29.6810   38.5330   46.8430 O.2    51  LEU51      -0.2867
     34  CB        32.2630   39.1970   47.8970 C.3    51  LEU51       0.0270
     35  CG        32.8490   37.8450   47.4650 C.3    51  LEU51       0.0019
     36  CD1       33.9560   38.0510   46.4340 C.3    51  LEU51       0.0001
     37  CD2       33.3950   37.1280   48.6810 C.3    51  LEU51       0.0001
     38  N         42.1850   47.3590   51.0200 N.3   130  GLN130     -0.1231
     39  CA        41.8180   46.6950   52.2600 C.3   130  GLN130      0.1698
     40  C         41.5180   47.6690   53.3840 C.2   130  GLN130      0.2592
     41  O         41.8270   48.8570   53.2950 O.2   130  GLN130     -0.2718
     42  CB        42.9330   45.7390   52.6820 C.3   130  GLN130      0.0381
     43  CG        43.2670   44.7150   51.6110 C.3   130  GLN130      0.0905
     44  CD        44.2900   43.7090   52.0740 C.2   130  GLN130      0.2608
     45  OE1       44.0480   42.9560   53.0160 O.2   130  GLN130     -0.2717
     46  NE2       45.4450   43.6900   51.4170 N.am  130  GLN130     -0.0878
     47  N         40.8940   47.1550   54.4350 N.am  131  ALA131     -0.1966
     48  CA        40.5480   47.9590   55.6010 C.3   131  ALA131      0.1728
     49  C         40.6890   47.0680   56.8190 C.2   131  ALA131      0.2616
     50  O         40.6960   45.8440   56.7040 O.2   131  ALA131     -0.2715
     51  CB        39.1150   48.4790   55.4920 C.3   131  ALA131      0.0334
     52  N         40.8070   47.6770   57.9880 N.am  132  VAL132     -0.1963
     53  CA        40.9450   46.8940   59.1990 C.3   132  VAL132      0.1727
     54  C         39.6650   46.9330   60.0110 C.2   132  VAL132      0.2616
     55  O         39.1820   48.0030   60.3810 O.2   132  VAL132     -0.2715
     56  CB        42.1000   47.4130   60.0720 C.3   132  VAL132      0.0290
     57  CG1       42.2160   46.5580   61.3300 C.3   132  VAL132      0.0023
     58  CG2       43.4060   47.4050   59.2690 C.3   132  VAL132      0.0023
     59  N         39.1100   45.7590   60.2750 N.am  133  PHE133     -0.1960
     60  CA        37.8950   45.6620   61.0700 C.3   133  PHE133      0.1771
     61  C         37.5990   44.2030   61.3920 C.2   133  PHE133      0.2620
     62  O         37.8350   43.3120   60.5750 O.2   133  PHE133     -0.2715
     63  CB        36.6980   46.2920   60.3350 C.3   133  PHE133      0.0574
     64  CG        36.3510   45.6140   59.0420 C.ar  133  PHE133     -0.0200
     65  CD1       37.0420   45.9160   57.8740 C.ar  133  PHE133     -0.0042
     66  CD2       35.3260   44.6720   58.9900 C.ar  133  PHE133     -0.0042
     67  CE1       36.7150   45.2910   56.6680 C.ar  133  PHE133     -0.0003
     68  CE2       34.9910   44.0400   57.7930 C.ar  133  PHE133     -0.0003
     69  CZ        35.6870   44.3510   56.6280 C.ar  133  PHE133     -0.0000
     70  N         37.0890   43.9650   62.5940 N.am  134  ASP134     -0.1958
     71  CA        36.7590   42.6190   63.0130 C.3   134  ASP134      0.1825
     72  C         35.3880   42.6370   63.6680 C.2   134  ASP134      0.2464
     73  O         35.2390   43.1600   64.7740 O.2   134  ASP134     -0.2730
     74  CB        37.7880   42.1100   64.0150 C.3   134  ASP134      0.1450
     75  CG        37.7680   40.6060   64.1400 C.2   134  ASP134      0.3671
     76  OD1       36.6970   40.0130   63.8790 O.co2 134  ASP134     -0.2456
     77  OD2       38.8140   40.0170   64.5000 O.co2 134  ASP134     -0.2456
     78  N         34.3630   42.0910   62.9840 N.am  135  PRO135     -0.2727
     79  CA        32.9920   42.0400   63.5060 C.3   135  PRO135      0.1402
     80  C         32.9230   41.0920   64.7040 C.2   135  PRO135      0.2269
     81  O         32.1990   41.3330   65.6740 O.2   135  PRO135     -0.2865
     82  CB        32.1880   41.5010   62.3230 C.3   135  PRO135      0.0296
     83  CG        32.9770   41.9240   61.1470 C.3   135  PRO135      0.0237
     84  CD        34.3910   41.6560   61.5790 C.3   135  PRO135      0.0939
     85  N         27.8000   38.8620   49.1530 N.3   250  ASP250     -0.1239
     86  CA        28.0770   39.3490   50.4900 C.3   250  ASP250      0.1674
     87  C         28.3620   40.8390   50.3840 C.2   250  ASP250      0.2266
     88  O         28.8910   41.3100   49.3780 O.2   250  ASP250     -0.2867
     89  CB        29.3010   38.6300   51.0650 C.3   250  ASP250      0.1410
     90  CG        29.0890   37.1240   51.1920 C.2   250  ASP250      0.3668
     91  OD1       28.2620   36.7070   52.0410 O.co2 250  ASP250     -0.2456
     92  OD2       29.7410   36.3570   50.4420 O.co2 250  ASP250     -0.2456
     93  N         29.6320   44.4130   52.7830 N.3   252  HIS252     -0.1241
     94  CA        30.0610   45.0070   54.0320 C.3   252  HIS252      0.1621
     95  C         30.3530   46.4860   53.8530 C.2   252  HIS252      0.2264
     96  O         31.0390   46.8880   52.9150 O.2   252  HIS252     -0.2867
     97  CB        31.3280   44.3280   54.5660 C.3   252  HIS252      0.0745
     98  CG        31.1890   42.8530   54.7850 C.ar  252  HIS252      0.0817
     99  ND1       31.0980   41.9500   53.7480 N.ar  252  HIS252     -0.2268
    100  CD2       31.1210   42.1230   55.9250 C.ar  252  HIS252      0.1154
    101  CE1       30.9780   40.7280   54.2370 C.ar  252  HIS252      0.1986
    102  NE2       30.9890   40.8040   55.5560 N.ar  252  HIS252     -0.2212
@<TRIPOS>BOND
     1     4     3    2
     2     1     2    1
     3    32    31    1
     4    32    33    2
     5     3     2    1
     6    36    35    1
     7     2     5    1
     8    31    30    1
     9    31    34    1
    10     5     6    1
    11    35    34    1
    12    35    37    1
    13     6     7    1
    14     7     8    1
    15     8     9    2
    16    11     9    1
    17     9    10    1
    18    85    86    1
    19    29    28    1
    20    26    25    1
    21    26    27    2
    22    88    87    2
    23    25    28    1
    24    25    24    1
    25    87    86    1
    26    92    90   ar
    27    86    89    1
    28    38    39    1
    29    89    90    1
    30    90    91   ar
    31    23    22    1
    32    46    44   am
    33    43    44    1
    34    43    42    1
    35    20    22   ar
    36    20    18   ar
    37    22    21   ar
    38    44    45    2
    39    39    42    1
    40    39    40    1
    41    18    17   ar
    42    93    94    1
    43    96    95    2
    44    21    19   ar
    45    14    13    1
    46    14    15    2
    47    41    40    2
    48    40    47   am
    49    13    16    1
    50    13    12    1
    51    17    19   ar
    52    17    16    1
    53    99   101   ar
    54    99    98   ar
    55    95    94    1
    56    94    97    1
    57   101   102   ar
    58    47    48    1
    59    97    98    1
    60    98   100   ar
    61    51    48    1
    62   102   100   ar
    63    48    49    1
    64    69    67   ar
    65    69    68   ar
    66    67    65   ar
    67    50    49    2
    68    49    52   am
    69    68    66   ar
    70    65    64   ar
    71    52    53    1
    72    66    64   ar
    73    64    63    1
    74    53    54    1
    75    53    56    1
    76    58    56    1
    77    54    59   am
    78    54    55    2
    79    56    57    1
    80    59    60    1
    81    63    60    1
    82    62    61    2
    83    60    61    1
    84    83    84    1
    85    83    82    1
    86    61    70   am
    87    84    78    1
    88    82    79    1
    89    70    71    1
    90    78    79    1
    91    78    72   am
    92    71    72    1
    93    71    74    1
    94    79    80    1
    95    72    73    2
    96    76    75   ar
    97    74    75    1
    98    75    77   ar
    99    80    81    2
