@<TRIPOS>MOLECULE
tmp/3a1lA01.pdb
 181 173 0 0 0
SMALL
GASTEIGER

@<TRIPOS>ATOM
      1  N        -21.1720   -0.5760  -29.7190 N.3    64  ARG64      -0.1245
      2  CA       -19.7380   -0.7340  -29.8890 C.3    64  ARG64       0.1563
      3  C        -19.3260   -1.2070  -31.2790 C.2    64  ARG64       0.2260
      4  O        -18.1350   -1.3430  -31.5660 O.2    64  ARG64      -0.2867
      5  CB       -19.2160   -1.7340  -28.8570 C.3    64  ARG64       0.0307
      6  CG       -19.5560   -1.4060  -27.4100 C.3    64  ARG64       0.0489
      7  CD       -19.1490    0.0090  -27.0620 C.3    64  ARG64       0.2205
      8  NE       -17.7720    0.3010  -27.4450 N.pl3  64  ARG64      -0.0865
      9  CZ       -16.7220    0.1930  -26.6380 C.cat  64  ARG64       0.5346
     10  NH1      -16.8790   -0.2010  -25.3800 N.pl3  64  ARG64       0.1354
     11  NH2      -15.5090    0.4810  -27.0940 N.pl3  64  ARG64       0.1354
     12  N        -12.2300   -1.5330  -34.6660 N.3    79  PRO79      -0.2102
     13  CA       -11.3300   -0.6150  -35.3700 C.3    79  PRO79       0.1504
     14  C         -9.9870   -1.2120  -35.7610 C.2    79  PRO79       0.2575
     15  O         -8.9490   -0.5710  -35.6250 O.2    79  PRO79      -0.2718
     16  CB       -11.1910    0.5490  -34.3900 C.3    79  PRO79       0.0282
     17  CG       -11.2980   -0.1210  -33.0710 C.3    79  PRO79       0.0208
     18  CD       -12.4500   -1.0830  -33.2800 C.3    79  PRO79       0.0893
     19  N        -10.0100   -2.4390  -36.2630 N.am   80  ILE80      -0.1980
     20  CA        -8.7840   -3.1010  -36.6760 C.3    80  ILE80       0.1595
     21  C         -8.7820   -3.2970  -38.2000 C.2    80  ILE80       0.2287
     22  O         -9.7790   -3.7270  -38.7830 O.2    80  ILE80      -0.2864
     23  CB        -8.6370   -4.4660  -35.9490 C.3    80  ILE80       0.0276
     24  CG1       -7.1990   -4.6500  -35.4700 C.3    80  ILE80       0.0022
     25  CG2       -9.0250   -5.6010  -36.8680 C.3    80  ILE80       0.0022
     26  CD1       -6.7890   -3.6700  -34.3900 C.3    80  ILE80       0.0001
     27  N         -4.7150  -10.4780  -35.2760 N.3    87  LEU87      -0.1245
     28  CA        -5.0520   -9.2910  -34.5070 C.3    87  LEU87       0.1561
     29  C         -6.5650   -9.1120  -34.4550 C.2    87  LEU87       0.2260
     30  O         -7.1770   -9.0970  -33.3840 O.2    87  LEU87      -0.2867
     31  CB        -4.4140   -8.0720  -35.1670 C.3    87  LEU87       0.0270
     32  CG        -4.7140   -6.7050  -34.5690 C.3    87  LEU87       0.0019
     33  CD1       -4.5320   -6.7410  -33.0590 C.3    87  LEU87       0.0001
     34  CD2       -3.7910   -5.6820  -35.2060 C.3    87  LEU87       0.0001
     35  N         -9.4190   -9.1410  -31.3170 N.3    91  VAL91      -0.1245
     36  CA       -10.0590   -7.9260  -30.8400 C.3    91  VAL91       0.1561
     37  C        -11.5740   -8.0110  -30.9660 C.2    91  VAL91       0.2260
     38  O        -12.3050   -7.4360  -30.1530 O.2    91  VAL91      -0.2867
     39  CB        -9.5190   -6.6920  -31.5870 C.3    91  VAL91       0.0252
     40  CG1      -10.3570   -5.4580  -31.2680 C.3    91  VAL91       0.0019
     41  CG2       -8.0760   -6.4570  -31.1690 C.3    91  VAL91       0.0019
     42  N        -13.3250   -9.4190  -27.8260 N.3    94  TRP94      -0.1241
     43  CA       -13.2280   -8.7390  -26.5400 C.3    94  TRP94       0.1605
     44  C        -14.6030   -8.2880  -26.0780 C.2    94  TRP94       0.2264
     45  O        -15.3220   -7.6010  -26.8030 O.2    94  TRP94      -0.2867
     46  CB       -12.3170   -7.5150  -26.6250 C.3    94  TRP94       0.0550
     47  CG       -10.8670   -7.8340  -26.7580 C.ar   94  TRP94       0.0003
     48  CD1      -10.2960   -9.0750  -26.8240 C.ar   94  TRP94       0.0946
     49  CD2       -9.7950   -6.8920  -26.8720 C.ar   94  TRP94       0.0152
     50  NE1       -8.9360   -8.9600  -26.9780 N.ar   94  TRP94      -0.2442
     51  CE2       -8.6030   -7.6300  -27.0090 C.ar   94  TRP94       0.0810
     52  CE3       -9.7300   -5.4920  -26.8710 C.ar   94  TRP94       0.0012
     53  CZ2       -7.3540   -7.0160  -27.1480 C.ar   94  TRP94       0.0191
     54  CZ3       -8.4950   -4.8830  -27.0070 C.ar   94  TRP94       0.0001
     55  CH2       -7.3200   -5.6470  -27.1450 C.ar   94  TRP94       0.0015
     56  N        -15.5540   -5.9780  -24.2640 N.3    96  VAL96      -0.1231
     57  CA       -15.7160   -4.5320  -24.3820 C.3    96  VAL96       0.1692
     58  C        -16.2920   -4.0610  -25.7160 C.2    96  VAL96       0.2592
     59  O        -17.0250   -3.0750  -25.7670 O.2    96  VAL96      -0.2718
     60  CB       -14.3740   -3.8100  -24.1320 C.3    96  VAL96       0.0266
     61  CG1      -13.4480   -3.9940  -25.3190 C.3    96  VAL96       0.0020
     62  CG2      -14.6130   -2.3410  -23.8570 C.3    96  VAL96       0.0020
     63  N        -15.9640   -4.7540  -26.7990 N.am   97  PHE97      -0.1976
     64  CA       -16.4820   -4.3660  -28.1070 C.3    97  PHE97       0.1639
     65  C        -17.7070   -5.1850  -28.4600 C.2    97  PHE97       0.2290
     66  O        -18.0260   -5.3660  -29.6310 O.2    97  PHE97      -0.2864
     67  CB       -15.4160   -4.5500  -29.1910 C.3    97  PHE97       0.0560
     68  CG       -14.2190   -3.6670  -29.0190 C.ar   97  PHE97      -0.0200
     69  CD1      -14.3630   -2.2880  -28.9670 C.ar   97  PHE97      -0.0042
     70  CD2      -12.9470   -4.2140  -28.9110 C.ar   97  PHE97      -0.0042
     71  CE1      -13.2580   -1.4640  -28.8060 C.ar   97  PHE97      -0.0003
     72  CE2      -11.8330   -3.4000  -28.7510 C.ar   97  PHE97      -0.0003
     73  CZ       -11.9880   -2.0230  -28.6970 C.ar   97  PHE97      -0.0000
     74  N          0.9080   -5.4690  -28.4710 N.3   179  LEU179     -0.1231
     75  CA        -0.4580   -5.5380  -28.9560 C.3   179  LEU179      0.1693
     76  C         -1.1190   -4.1830  -28.8290 C.2   179  LEU179      0.2591
     77  O         -1.9200   -3.7660  -29.6720 O.2   179  LEU179     -0.2718
     78  CB        -1.2400   -6.5650  -28.1350 C.3   179  LEU179      0.0284
     79  CG        -2.7600   -6.5580  -28.3130 C.3   179  LEU179      0.0019
     80  CD1       -3.2080   -7.9280  -28.7680 C.3   179  LEU179      0.0001
     81  CD2       -3.4400   -6.1680  -27.0080 C.3   179  LEU179      0.0001
     82  N         -0.7540   -3.4870  -27.7640 N.am  180  GLN180     -0.1979
     83  CA        -1.3200   -2.2020  -27.4550 C.3   180  GLN180      0.1601
     84  C         -1.0250   -1.1450  -28.4980 C.2   180  GLN180      0.2287
     85  O         -1.6050   -0.0570  -28.4670 O.2   180  GLN180     -0.2864
     86  CB        -0.8190   -1.7830  -26.0790 C.3   180  GLN180      0.0394
     87  CG        -1.4250   -0.5230  -25.5280 C.3   180  GLN180      0.0908
     88  CD        -2.9290   -0.4740  -25.6880 C.2   180  GLN180      0.2608
     89  OE1       -3.6150   -1.5090  -25.7160 O.2   180  GLN180     -0.2717
     90  NE2       -3.4570    0.7380  -25.7830 N.am  180  GLN180     -0.0878
     91  N         -2.0100   -1.1180  -31.3030 N.3   182  ALA182     -0.1231
     92  CA        -3.1520   -1.0680  -32.2100 C.3   182  ALA182      0.1694
     93  C         -4.2990   -0.1530  -31.7890 C.2   182  ALA182      0.2593
     94  O         -5.1830    0.1150  -32.6000 O.2   182  ALA182     -0.2718
     95  CB        -3.6890   -2.4630  -32.4390 C.3   182  ALA182      0.0304
     96  N         -4.3060    0.3270  -30.5460 N.am  183  SER183     -0.1938
     97  CA        -5.4010    1.1930  -30.1110 C.3   183  SER183      0.2055
     98  C         -5.4400    2.4080  -31.0350 C.2   183  SER183      0.2643
     99  O         -4.4120    2.8420  -31.5470 O.2   183  SER183     -0.2714
    100  CB        -5.2370    1.6120  -28.6350 C.3   183  SER183      0.2130
    101  OG        -4.4960    2.8120  -28.4910 O.3   183  SER183     -0.2179
    102  N         -6.6380    2.9490  -31.2400 N.am  184  THR184     -0.1950
    103  CA        -6.8620    4.0740  -32.1450 C.3   184  THR184      0.1897
    104  C         -6.0910    5.3660  -31.9850 C.2   184  THR184      0.2313
    105  O         -5.9670    6.1070  -32.9470 O.2   184  THR184     -0.2863
    106  CB        -8.3460    4.4670  -32.1860 C.3   184  THR184      0.1794
    107  OG1       -8.7630    4.9250  -30.8950 O.3   184  THR184     -0.2208
    108  CG2       -9.1950    3.2890  -32.6080 C.3   184  THR184      0.0378
    109  N         -8.0690  -10.4460  -23.6060 N.3   247  HIS247     -0.1241
    110  CA        -8.8600   -9.3200  -23.1150 C.3   247  HIS247      0.1621
    111  C         -8.7260   -9.1270  -21.6090 C.2   247  HIS247      0.2264
    112  O         -8.6030   -8.0030  -21.1330 O.2   247  HIS247     -0.2867
    113  CB       -10.3400   -9.5350  -23.4550 C.3   247  HIS247      0.0745
    114  CG       -11.2110   -8.3460  -23.1750 C.ar  247  HIS247      0.0817
    115  ND1      -12.5380   -8.4670  -22.8150 N.ar  247  HIS247     -0.2268
    116  CD2      -10.9620   -7.0180  -23.2510 C.ar  247  HIS247      0.1154
    117  CE1      -13.0680   -7.2630  -22.6860 C.ar  247  HIS247      0.1986
    118  NE2      -12.1330   -6.3670  -22.9460 N.ar  247  HIS247     -0.2212
    119  N         -4.9960   -8.1580  -20.5950 N.3   250  THR250     -0.1203
    120  CA        -4.7210   -6.7560  -20.8550 C.3   250  THR250      0.1994
    121  C         -5.5770   -5.8910  -19.9320 C.2   250  THR250      0.2617
    122  O         -5.0640   -5.0510  -19.1860 O.2   250  THR250     -0.2717
    123  CB        -5.0170   -6.4120  -22.3240 C.3   250  THR250      0.1784
    124  OG1       -6.2980   -6.9390  -22.6870 O.3   250  THR250     -0.2211
    125  CG2       -3.9550   -7.0050  -23.2300 C.3   250  THR250      0.0376
    126  N         -6.8830   -6.1090  -19.9770 N.am  251  ALA251     -0.1979
    127  CA        -7.8060   -5.3580  -19.1370 C.3   251  ALA251      0.1597
    128  C         -7.4150   -5.5400  -17.6860 C.2   251  ALA251      0.2287
    129  O         -7.6390   -4.6660  -16.8580 O.2   251  ALA251     -0.2864
    130  CB        -9.2100   -5.8610  -19.3380 C.3   251  ALA251      0.0319
    131  N         -4.4350   -1.0800  -17.1270 N.3   255  THR255     -0.1218
    132  CA        -5.1030    0.0380  -16.4860 C.3   255  THR255      0.1862
    133  C         -4.6130    0.1980  -15.0520 C.2   255  THR255      0.2287
    134  O         -4.4210    1.3110  -14.5730 O.2   255  THR255     -0.2866
    135  CB        -6.6070   -0.1680  -16.4900 C.3   255  THR255      0.1770
    136  OG1       -6.8940   -1.5500  -16.2460 O.3   255  THR255     -0.2211
    137  CG2       -7.1890    0.2460  -17.8250 C.3   255  THR255      0.0375
    138  N         -7.7700    5.5650  -18.1290 N.3   298  VAL298     -0.1245
    139  CA        -8.4820    5.4520  -19.4020 C.3   298  VAL298      0.1561
    140  C         -9.0400    6.8160  -19.7530 C.2   298  VAL298      0.2260
    141  O        -10.0570    7.2330  -19.2020 O.2   298  VAL298     -0.2867
    142  CB        -9.6660    4.4930  -19.3140 C.3   298  VAL298      0.0252
    143  CG1      -10.3830    4.4440  -20.6590 C.3   298  VAL298      0.0019
    144  CG2       -9.1850    3.1170  -18.9120 C.3   298  VAL298      0.0019
    145  N        -10.0890    7.8490  -22.8870 N.3   300  ALA300     -0.1231
    146  CA       -11.1250    7.8790  -23.9090 C.3   300  ALA300      0.1694
    147  C        -11.7280    6.5480  -24.3390 C.2   300  ALA300      0.2592
    148  O        -11.0220    5.5720  -24.5940 O.2   300  ALA300     -0.2718
    149  CB       -10.5940    8.6150  -25.1330 C.3   300  ALA300      0.0304
    150  N        -13.0530    6.5320  -24.4310 N.am  301  VAL301     -0.1966
    151  CA       -13.7900    5.3520  -24.8560 C.3   301  VAL301      0.1727
    152  C        -14.7090    5.7910  -25.9870 C.2   301  VAL301      0.2616
    153  O        -15.1770    6.9360  -26.0100 O.2   301  VAL301     -0.2715
    154  CB       -14.6220    4.7670  -23.7010 C.3   301  VAL301      0.0290
    155  CG1      -13.6900    4.2740  -22.5980 C.3   301  VAL301      0.0023
    156  CG2      -15.5750    5.8300  -23.1490 C.3   301  VAL301      0.0023
    157  N        -14.9680    4.8880  -26.9250 N.am  302  THR302     -0.1951
    158  CA       -15.8080    5.2240  -28.0600 C.3   302  THR302      0.1897
    159  C        -17.0700    4.3800  -28.1880 C.2   302  THR302      0.2313
    160  O        -17.0800    3.1970  -27.8690 O.2   302  THR302     -0.2863
    161  CB       -15.0110    5.1010  -29.3800 C.3   302  THR302      0.1794
    162  OG1      -14.6460    3.7330  -29.5930 O.3   302  THR302     -0.2208
    163  CG2      -13.7470    5.9260  -29.3140 C.3   302  THR302      0.0378
    164  N         -5.7090    6.4590  -25.0240 N.3   399  VAL399     -0.1231
    165  CA        -6.7550    5.5650  -24.5320 C.3   399  VAL399      0.1692
    166  C         -6.1480    5.0010  -23.2430 C.2   399  VAL399      0.2592
    167  O         -6.5380    5.3970  -22.1370 O.2   399  VAL399     -0.2718
    168  CB        -7.0630    4.4460  -25.5440 C.3   399  VAL399      0.0266
    169  CG1       -8.1950    3.5710  -25.0300 C.3   399  VAL399      0.0020
    170  CG2       -7.4700    5.0630  -26.8690 C.3   399  VAL399      0.0020
    171  N         -5.1850    4.0920  -23.3790 N.am  400  PHE400     -0.1976
    172  CA        -4.5020    3.5750  -22.1970 C.3   400  PHE400      0.1639
    173  C         -3.4420    4.6270  -21.9160 C.2   400  PHE400      0.2290
    174  O         -2.3650    4.6170  -22.5030 O.2   400  PHE400     -0.2864
    175  CB        -3.8700    2.2110  -22.4700 C.3   400  PHE400      0.0560
    176  CG        -4.8460    1.0720  -22.3770 C.ar  400  PHE400     -0.0200
    177  CD1       -6.1890    1.3140  -22.0960 C.ar  400  PHE400     -0.0042
    178  CD2       -4.4290   -0.2360  -22.5670 C.ar  400  PHE400     -0.0042
    179  CE1       -7.0900    0.2780  -22.0080 C.ar  400  PHE400     -0.0003
    180  CE2       -5.3280   -1.2820  -22.4820 C.ar  400  PHE400     -0.0003
    181  CZ        -6.6590   -1.0260  -22.2020 C.ar  400  PHE400     -0.0000
@<TRIPOS>BOND
     1    22    21    2
     2    21    20    1
     3    25    23    1
     4    20    19    1
     5    20    23    1
     6    19    14   am
     7    23    24    1
     8    14    15    2
     9    14    13    1
    10    24    26    1
    11    13    12    1
    12    13    16    1
    13    27    28    1
    14    34    32    1
    15    31    32    1
    16    31    28    1
    17    12    18    1
    18    32    33    1
    19    28    29    1
    20    29    30    2
    21    16    17    1
    22    18    17    1
    23   105   104    2
    24   108   106    1
    25    94    93    2
    26    95    92    1
    27    92    93    1
    28    92    91    1
    29   106   103    1
    30   106   107    1
    31   103   104    1
    32   103   102    1
    33    93    96   am
    34    39    40    1
    35    39    41    1
    36    39    36    1
    37     4     3    2
    38    99    98    2
    39    35    36    1
    40     3     2    1
    41   102    98   am
    42    98    97    1
    43    37    36    1
    44    37    38    2
    45    96    97    1
    46    97   100    1
    47     2     1    1
    48     2     5    1
    49    77    76    2
    50    66    65    2
    51   162   161    1
    52   161   163    1
    53   161   158    1
    54    67    68    1
    55    67    64    1
    56    68    69   ar
    57    68    70   ar
    58    69    71   ar
    59    75    76    1
    60    75    74    1
    61    75    78    1
    62    70    72   ar
    63     5     6    1
    64    76    82   am
    65    71    73   ar
    66    80    79    1
    67    72    73   ar
    68   100   101    1
    69    84    85    2
    70    84    83    1
    71    65    64    1
    72    79    78    1
    73    79    81    1
    74   159   158    1
    75   159   160    2
    76    64    63    1
    77   158   157    1
    78    42    43    1
    79    82    83    1
    80    83    86    1
    81     8     7    1
    82     8     9    2
    83     6     7    1
    84    53    55   ar
    85    53    51   ar
    86    55    54   ar
    87    11     9    1
    88    51    50   ar
    89    51    49   ar
    90    54    52   ar
    91    50    48   ar
    92   157   152   am
    93    49    52   ar
    94    49    47   ar
    95   170   168    1
    96    48    47   ar
    97    45    44    2
    98    63    58   am
    99    47    46    1
   100     9    10    1
   101    46    43    1
   102    43    44    1
   103    86    87    1
   104   153   152    2
   105   152   151    1
   106    90    88   am
   107    59    58    2
   108    89    88    2
   109    58    57    1
   110    88    87    1
   111   168   169    1
   112   168   165    1
   113    61    60    1
   114   149   146    1
   115   164   165    1
   116   151   150    1
   117   151   154    1
   118   148   147    2
   119   165   166    1
   120   150   147   am
   121    57    56    1
   122    57    60    1
   123   147   146    1
   124    60    62    1
   125   146   145    1
   126   154   156    1
   127   154   155    1
   128   109   110    1
   129   113   114    1
   130   113   110    1
   131   171   166   am
   132   171   172    1
   133   116   114   ar
   134   116   118   ar
   135   166   167    2
   136   125   123    1
   137   114   115   ar
   138   110   111    1
   139   118   117   ar
   140   115   117   ar
   141   124   123    1
   142   178   180   ar
   143   178   176   ar
   144   174   173    2
   145   180   181   ar
   146   175   176    1
   147   175   172    1
   148   176   177   ar
   149   123   120    1
   150   181   179   ar
   151   172   173    1
   152   177   179   ar
   153   111   112    2
   154   120   119    1
   155   120   121    1
   156   143   142    1
   157   126   121   am
   158   126   127    1
   159   121   122    2
   160   140   139    1
   161   140   141    2
   162   139   142    1
   163   139   138    1
   164   130   127    1
   165   142   144    1
   166   127   128    1
   167   137   135    1
   168   128   129    2
   169   131   132    1
   170   135   132    1
   171   135   136    1
   172   132   133    1
   173   133   134    2
