@<TRIPOS>MOLECULE
tmp/3a1sA01.pdb
 91 88 0 0 0
SMALL
GASTEIGER

@<TRIPOS>ATOM
      1  N        -38.5890    8.2060  -14.5140 N.3   178  GLU178     -0.1245
      2  CA       -38.6970    9.5060  -15.1670 C.3   178  GLU178      0.1567
      3  C        -37.6820    9.6310  -16.3070 C.2   178  GLU178      0.2260
      4  O        -37.9740   10.2250  -17.3490 O.2   178  GLU178     -0.2867
      5  CB       -38.5070   10.6380  -14.1570 C.3   178  GLU178      0.0388
      6  CG       -39.6050   10.7170  -13.1040 C.3   178  GLU178      0.1160
      7  CD       -40.9910   10.9510  -13.6950 C.2   178  GLU178      0.3649
      8  OE1      -41.1950   11.9770  -14.3780 O.co2 178  GLU178     -0.2457
      9  OE2      -41.8810   10.1100  -13.4660 O.co2 178  GLU178     -0.2457
     10  N        -39.0370    7.8210  -19.2850 N.3   181  LYS181     -0.1231
     11  CA       -40.1140    8.6040  -19.8770 C.3   181  LYS181      0.1693
     12  C        -39.5900    9.7860  -20.6880 C.2   181  LYS181      0.2591
     13  O        -40.1270   10.1080  -21.7460 O.2   181  LYS181     -0.2718
     14  CB       -41.0950    9.0680  -18.8010 C.3   181  LYS181      0.0285
     15  CG       -41.9890    7.9510  -18.2850 C.3   181  LYS181      0.0035
     16  CD       -42.4630    8.2200  -16.8640 C.3   181  LYS181      0.0206
     17  CE       -43.2900    9.4840  -16.7740 C.3   181  LYS181      0.1093
     18  NZ       -43.8710    9.6610  -15.4030 N.3   181  LYS181     -0.1314
     19  N        -38.5380   10.4270  -20.1930 N.am  182  VAL182     -0.1980
     20  CA       -37.9350   11.5360  -20.9190 C.3   182  VAL182      0.1595
     21  C        -37.2480   11.0560  -22.1950 C.2   182  VAL182      0.2287
     22  O        -37.4010   11.6590  -23.2580 O.2   182  VAL182     -0.2864
     23  CB       -36.9320   12.3070  -20.0360 C.3   182  VAL182      0.0276
     24  CG1      -36.1570   13.3240  -20.8660 C.3   182  VAL182      0.0022
     25  CG2      -37.6670   12.9940  -18.8940 C.3   182  VAL182      0.0022
     26  N        -39.7780   10.3240  -24.7480 N.3   185  PHE185     -0.1241
     27  CA       -40.3610   11.5530  -25.2620 C.3   185  PHE185      0.1605
     28  C        -39.4680   12.1720  -26.3350 C.2   185  PHE185      0.2264
     29  O        -39.9590   12.7790  -27.2890 O.2   185  PHE185     -0.2867
     30  CB       -40.5830   12.5420  -24.1160 C.3   185  PHE185      0.0534
     31  CG       -41.2110   13.8420  -24.5400 C.ar  185  PHE185     -0.0203
     32  CD1      -40.4300   14.8830  -25.0160 C.ar  185  PHE185     -0.0042
     33  CD2      -42.5800   14.0310  -24.4390 C.ar  185  PHE185     -0.0042
     34  CE1      -41.0020   16.0820  -25.3980 C.ar  185  PHE185     -0.0003
     35  CE2      -43.1610   15.2290  -24.8200 C.ar  185  PHE185     -0.0003
     36  CZ       -42.3690   16.2560  -25.3000 C.ar  185  PHE185     -0.0000
     37  N        -32.0830   17.8860  -17.2540 N.3   202  TYR202     -0.1227
     38  CA       -33.4220   18.4670  -17.3210 C.3   202  TYR202      0.1736
     39  C        -34.1650   18.2710  -15.9950 C.2   202  TYR202      0.2595
     40  O        -34.6590   19.2310  -15.4000 O.2   202  TYR202     -0.2718
     41  CB       -34.2040   17.8650  -18.5010 C.3   202  TYR202      0.0548
     42  CG       -35.7110   17.9230  -18.3540 C.ar  202  TYR202     -0.0200
     43  CD1      -36.4220   19.0880  -18.6380 C.ar  202  TYR202     -0.0009
     44  CD2      -36.4290   16.8030  -17.9430 C.ar  202  TYR202     -0.0009
     45  CE1      -37.8090   19.1360  -18.5080 C.ar  202  TYR202      0.0417
     46  CE2      -37.8030   16.8470  -17.8050 C.ar  202  TYR202      0.0417
     47  CZ       -38.4910   18.0140  -18.0870 C.ar  202  TYR202      0.1957
     48  OH       -39.8630   18.0430  -17.9530 O.3   202  TYR202     -0.2866
     49  N        -34.2160   17.0320  -15.5180 N.am  203  LEU203     -0.1980
     50  CA       -34.8820   16.7370  -14.2540 C.3   203  LEU203      0.1596
     51  C        -34.2860   17.5350  -13.0910 C.2   203  LEU203      0.2287
     52  O        -35.0010   17.9130  -12.1630 O.2   203  LEU203     -0.2864
     53  CB       -34.8160   15.2340  -13.9490 C.3   203  LEU203      0.0297
     54  CG       -35.6120   14.3030  -14.8640 C.3   203  LEU203      0.0022
     55  CD1      -35.2990   12.8540  -14.5400 C.3   203  LEU203      0.0001
     56  CD2      -37.1030   14.5670  -14.7480 C.3   203  LEU203      0.0001
     57  N        -41.0180   19.1880  -23.3510 N.3   218  LEU218     -0.1231
     58  CA       -41.1350   18.5880  -22.0250 C.3   218  LEU218      0.1678
     59  C        -41.8470   19.5550  -21.0950 C.2   218  LEU218      0.2434
     60  O        -41.7380   20.7710  -21.2640 O.2   218  LEU218     -0.2733
     61  CB       -39.7570   18.2380  -21.4570 C.3   218  LEU218      0.0284
     62  CG       -39.0590   17.0580  -22.1320 C.3   218  LEU218      0.0019
     63  CD1      -37.5910   17.0060  -21.7410 C.3   218  LEU218      0.0001
     64  CD2      -39.7690   15.7500  -21.7860 C.3   218  LEU218      0.0001
     65  N        -42.5770   19.0170  -20.1070 N.am  219  PRO219     -0.2729
     66  CA       -43.3470   19.8440  -19.1740 C.3   219  PRO219      0.1401
     67  C        -42.4350   20.6460  -18.2540 C.2   219  PRO219      0.2269
     68  O        -41.3150   20.2220  -17.9620 O.2   219  PRO219     -0.2865
     69  CB       -44.1210   18.8070  -18.3400 C.3   219  PRO219      0.0296
     70  CG       -43.9490   17.4980  -19.0390 C.3   219  PRO219      0.0237
     71  CD       -42.6630   17.5860  -19.7740 C.3   219  PRO219      0.0939
     72  N        -41.2400   21.8220  -14.6140 N.3   221  LEU221     -0.1245
     73  CA       -41.1610   21.1160  -13.3430 C.3   221  LEU221      0.1561
     74  C        -41.1410   22.1280  -12.2100 C.2   221  LEU221      0.2260
     75  O        -40.5190   23.1860  -12.3310 O.2   221  LEU221     -0.2867
     76  CB       -39.8740   20.2880  -13.2820 C.3   221  LEU221      0.0270
     77  CG       -39.6320   19.2190  -14.3490 C.3   221  LEU221      0.0019
     78  CD1      -38.1990   18.6670  -14.2460 C.3   221  LEU221      0.0001
     79  CD2      -40.6700   18.1090  -14.2200 C.3   221  LEU221      0.0001
     80  N        -34.7470   16.1300   -7.4550 N.3   229  TYR229     -0.1241
     81  CA       -33.9960   15.2950   -8.3870 C.3   229  TYR229      0.1605
     82  C        -32.5030   15.6110   -8.3360 C.2   229  TYR229      0.2264
     83  O        -31.6700   14.7110   -8.2830 O.2   229  TYR229     -0.2867
     84  CB       -34.5180   15.4610   -9.8170 C.3   229  TYR229      0.0534
     85  CG       -35.8870   14.8650  -10.0450 C.ar  229  TYR229     -0.0201
     86  CD1      -36.1860   13.5770   -9.6140 C.ar  229  TYR229     -0.0009
     87  CD2      -36.8790   15.5810  -10.7010 C.ar  229  TYR229     -0.0009
     88  CE1      -37.4370   13.0210   -9.8230 C.ar  229  TYR229      0.0417
     89  CE2      -38.1370   15.0340  -10.9120 C.ar  229  TYR229      0.0417
     90  CZ       -38.4070   13.7540  -10.4760 C.ar  229  TYR229      0.1957
     91  OH       -39.6500   13.2050  -10.6830 O.3   229  TYR229     -0.2866
@<TRIPOS>BOND
     1    29    28    2
     2    28    27    1
     3    34    36   ar
     4    34    32   ar
     5    36    35   ar
     6    27    26    1
     7    27    30    1
     8    32    31   ar
     9    35    33   ar
    10    31    33   ar
    11    31    30    1
    12    57    58    1
    13    22    21    2
    14    21    20    1
    15    62    64    1
    16    62    63    1
    17    62    61    1
    18    58    61    1
    19    58    59    1
    20    13    12    2
    21    60    59    2
    22    59    65   am
    23    20    19    1
    24    20    23    1
    25    24    23    1
    26    12    19   am
    27    12    11    1
    28    65    71    1
    29    65    66    1
    30    23    25    1
    31    11    10    1
    32    11    14    1
    33    71    70    1
    34    66    69    1
    35    66    67    1
    36    70    69    1
    37    14    15    1
    38    43    45   ar
    39    43    42   ar
    40    45    47   ar
    41    41    42    1
    42    41    38    1
    43    42    44   ar
    44    15    16    1
    45    67    68    2
    46    47    48    1
    47    47    46   ar
    48    44    46   ar
    49     4     3    2
    50    38    37    1
    51    38    39    1
    52    16    17    1
    53    17    18    1
    54     3     2    1
    55    39    49   am
    56    39    40    2
    57    49    50    1
    58     2     1    1
    59     2     5    1
    60    54    56    1
    61    54    55    1
    62    54    53    1
    63    72    73    1
    64     8     7   ar
    65    77    78    1
    66    77    79    1
    67    77    76    1
    68    50    53    1
    69    50    51    1
    70     5     6    1
    71     7     9   ar
    72     7     6    1
    73    73    76    1
    74    73    74    1
    75    51    52    2
    76    75    74    2
    77    89    87   ar
    78    89    90   ar
    79    87    85   ar
    80    91    90    1
    81    90    88   ar
    82    85    84    1
    83    85    86   ar
    84    88    86   ar
    85    84    81    1
    86    81    82    1
    87    81    80    1
    88    82    83    2
