@<TRIPOS>MOLECULE
tmp/3a1tA00.pdb
 102 99 0 0 0
SMALL
GASTEIGER

@<TRIPOS>ATOM
      1  N         23.9360   12.1200   18.1990 N.3    10  CYS10      -0.1221
      2  CA        25.0770   11.3560   18.7100 C.3    10  CYS10       0.1794
      3  C         25.4680   11.9090   20.0780 C.2    10  CYS10       0.2443
      4  O         25.1700   13.0750   20.3970 O.2    10  CYS10      -0.2733
      5  CB        26.2670   11.4560   17.7600 C.3    10  CYS10       0.0970
      6  SG        25.9650   10.8490   16.0860 S.3    10  CYS10      -0.0800
      7  N         26.1340   11.0800   20.8950 N.am   11  PRO11      -0.2718
      8  CA        26.6990   11.5650   22.1570 C.3    11  PRO11       0.1535
      9  C         27.6550   12.7200   21.9020 C.2    11  PRO11       0.2599
     10  O         28.3310   12.7330   20.8730 O.2    11  PRO11      -0.2715
     11  CB        27.4950   10.3580   22.6750 C.3    11  PRO11       0.0310
     12  CG        26.8880    9.1840   22.0230 C.3    11  PRO11       0.0237
     13  CD        26.4160    9.6470   20.6750 C.3    11  PRO11       0.0939
     14  N         27.6910   13.6840   22.8160 N.am   12  ASN12      -0.1959
     15  CA        28.6440   14.7820   22.7330 C.3    12  ASN12       0.1819
     16  C         28.6140   15.6350   21.4730 C.2    12  ASN12       0.2621
     17  O         29.6590   16.0110   20.9440 O.2    12  ASN12      -0.2715
     18  CB        30.0560   14.2540   22.9700 C.3    12  ASN12       0.1195
     19  CG        30.5270   14.5460   24.3580 C.2    12  ASN12       0.2630
     20  OD1       30.8670   15.6940   24.6800 O.2    12  ASN12      -0.2716
     21  ND2       30.5110   13.5300   25.2130 N.am   12  ASN12      -0.0877
     22  N         27.4250   15.9570   20.9950 N.am   13  VAL13      -0.1963
     23  CA        27.3380   16.8520   19.8550 C.3    13  VAL13       0.1727
     24  C         26.8850   18.2340   20.3150 C.2    13  VAL13       0.2617
     25  O         27.0130   19.1950   19.5750 O.2    13  VAL13      -0.2715
     26  CB        26.3750   16.3390   18.7640 C.3    13  VAL13       0.0290
     27  CG1       26.9110   15.0400   18.1490 C.3    13  VAL13       0.0023
     28  CG2       24.9800   16.1460   19.3370 C.3    13  VAL13       0.0023
     29  N         26.3740   18.3190   21.5440 N.am   14  GLY14      -0.1940
     30  CA        25.8310   19.5770   22.0540 C.3    14  GLY14       0.2014
     31  C         24.3210   19.5590   22.2920 C.2    14  GLY14       0.2639
     32  O         23.6790   20.6080   22.3150 O.2    14  GLY14      -0.2714
     33  N         23.7450   18.3700   22.4720 N.am   15  LYS15      -0.1963
     34  CA        22.3140   18.2510   22.7390 C.3    15  LYS15       0.1728
     35  C         21.9010   18.8870   24.0600 C.2    15  LYS15       0.2617
     36  O         20.9260   19.6340   24.1140 O.2    15  LYS15      -0.2715
     37  CB        21.8620   16.7830   22.7360 C.3    15  LYS15       0.0311
     38  CG        21.4630   16.2430   21.3860 C.3    15  LYS15       0.0038
     39  CD        20.3080   15.2380   21.5040 C.3    15  LYS15       0.0206
     40  CE        20.7470   13.9340   22.1650 C.3    15  LYS15       0.1093
     41  NZ        20.7220   13.9750   23.6480 N.3    15  LYS15      -0.1314
     42  N         22.6210   18.5680   25.1280 N.am   16  THR16      -0.1937
     43  CA        22.2740   19.0850   26.4450 C.3    16  THR16       0.2028
     44  C         22.2910   20.6100   26.4430 C.2    16  THR16       0.2642
     45  O         21.3940   21.2610   26.9900 O.2    16  THR16      -0.2714
     46  CB        23.2480   18.5900   27.5170 C.3    16  THR16       0.1808
     47  OG1       23.1300   17.1660   27.6520 O.3    16  THR16      -0.2208
     48  CG2       22.9670   19.2630   28.8710 C.3    16  THR16       0.0379
     49  N         23.3280   21.1740   25.8400 N.am   17  SER17      -0.1949
     50  CA        23.4720   22.6260   25.7950 C.3    17  SER17       0.1924
     51  C         22.2930   23.2630   25.0520 C.2    17  SER17       0.2314
     52  O         21.7450   24.2890   25.4740 O.2    17  SER17      -0.2863
     53  CB        24.7980   22.9950   25.1220 C.3    17  SER17       0.2116
     54  OG        25.9050   22.4990   25.8750 O.3    17  SER17      -0.2180
     55  N         24.5020   22.2990   15.0520 N.3   115  THR115     -0.1203
     56  CA        24.9100   23.1200   16.1750 C.3   115  THR115      0.1994
     57  C         26.4270   23.3410   16.2010 C.2   115  THR115      0.2617
     58  O         27.1380   22.8850   15.3050 O.2   115  THR115     -0.2717
     59  CB        24.3350   22.5770   17.5050 C.3   115  THR115      0.1784
     60  OG1       24.3360   23.6170   18.4890 O.3   115  THR115     -0.2211
     61  CG2       25.1050   21.3180   18.0070 C.3   115  THR115      0.0376
     62  N         26.9100   24.0650   17.2040 N.am  116  ALA116     -0.1979
     63  CA        28.3060   24.4970   17.2430 C.3   116  ALA116      0.1597
     64  C         28.7380   25.1970   15.9490 C.2   116  ALA116      0.2287
     65  O         29.8930   25.1290   15.5380 O.2   116  ALA116     -0.2864
     66  CB        29.2470   23.3210   17.5860 C.3   116  ALA116      0.0319
     67  N         29.3700   28.1130   15.5490 N.3   118  ASP118     -0.1225
     68  CA        30.3950   29.1050   15.8700 C.3   118  ASP118      0.1805
     69  C         31.7930   28.5150   15.7130 C.2   118  ASP118      0.2597
     70  O         32.7310   29.2260   15.3840 O.2   118  ASP118     -0.2718
     71  CB        30.2270   29.6220   17.2990 C.3   118  ASP118      0.1424
     72  CG        30.2380   28.4990   18.3270 C.2   118  ASP118      0.3668
     73  OD1       29.3550   27.6150   18.2420 O.co2 118  ASP118     -0.2456
     74  OD2       31.1200   28.5000   19.2180 O.co2 118  ASP118     -0.2456
     75  N         31.9300   27.2140   15.9640 N.am  119  GLU119     -0.1979
     76  CA        33.2230   26.5610   15.8370 C.3   119  GLU119      0.1602
     77  C         33.4930   26.2890   14.3530 C.2   119  GLU119      0.2287
     78  O         34.6370   26.3350   13.8960 O.2   119  GLU119     -0.2864
     79  CB        33.2680   25.2800   16.6840 C.3   119  GLU119      0.0415
     80  CG        34.5950   24.5090   16.6280 C.3   119  GLU119      0.1163
     81  CD        35.7470   25.2220   17.3260 C.2   119  GLU119      0.3649
     82  OE1       35.5880   26.3920   17.7150 O.co2 119  GLU119     -0.2457
     83  OE2       36.8210   24.6060   17.4890 O.co2 119  GLU119     -0.2457
     84  N         23.9800   27.7450   17.6720 N.3   144  SER144     -0.1202
     85  CA        25.1090   27.7820   18.5940 C.3   144  SER144      0.2020
     86  C         24.6220   28.0710   19.9990 C.2   144  SER144      0.2619
     87  O         23.9590   29.0740   20.2340 O.2   144  SER144     -0.2717
     88  CB        26.1100   28.8700   18.2080 C.3   144  SER144      0.2103
     89  OG        27.1280   28.9430   19.2010 O.3   144  SER144     -0.2182
     90  N         24.9660   27.2050   20.9410 N.am  145  SER145     -0.1937
     91  CA        24.6180   27.4260   22.3370 C.3   145  SER145      0.2055
     92  C         25.5860   28.4320   22.9500 C.2   145  SER145      0.2642
     93  O         25.3320   28.9930   24.0240 O.2   145  SER145     -0.2714
     94  CB        24.6500   26.0950   23.1100 C.3   145  SER145      0.2130
     95  OG        23.6150   25.2250   22.6710 O.3   145  SER145     -0.2179
     96  N         26.7030   28.6490   22.2610 N.am  146  VAL146     -0.1977
     97  CA        27.7260   29.5860   22.7130 C.3   146  VAL146      0.1596
     98  C         27.3330   31.0230   22.3640 C.2   146  VAL146      0.2287
     99  O         27.4390   31.9270   23.2010 O.2   146  VAL146     -0.2864
    100  CB        29.0790   29.2760   22.0650 C.3   146  VAL146      0.0276
    101  CG1       30.0650   30.4290   22.2740 C.3   146  VAL146      0.0022
    102  CG2       29.6360   27.9830   22.6310 C.3   146  VAL146      0.0022
@<TRIPOS>BOND
     1    78    77    2
     2    77    76    1
     3    55    56    1
     4    58    57    2
     5    70    69    2
     6    65    64    2
     7    67    68    1
     8    69    68    1
     9    69    75   am
    10    76    75    1
    11    76    79    1
    12    68    71    1
    13    64    63    1
    14     6     5    1
    15    56    57    1
    16    56    59    1
    17    57    62   am
    18    80    79    1
    19    80    81    1
    20    62    63    1
    21    63    66    1
    22    71    72    1
    23    81    83   ar
    24    81    82   ar
    25    59    61    1
    26    59    60    1
    27    84    85    1
    28     5     2    1
    29    27    26    1
    30     1     2    1
    31    88    85    1
    32    88    89    1
    33    73    72   ar
    34    72    74   ar
    35    85    86    1
    36     2     3    1
    37    26    28    1
    38    26    23    1
    39    25    24    2
    40    23    24    1
    41    23    22    1
    42    86    87    2
    43    86    90   am
    44     3     4    2
    45     3     7   am
    46    24    29   am
    47    13     7    1
    48    13    12    1
    49    10     9    2
    50     7     8    1
    51    90    91    1
    52    17    16    2
    53    22    16   am
    54    38    39    1
    55    38    37    1
    56    16    15    1
    57    39    40    1
    58    29    30    1
    59     9     8    1
    60     9    14   am
    61    12    11    1
    62    30    31    1
    63   100   101    1
    64   100   102    1
    65   100    97    1
    66     8    11    1
    67    40    41    1
    68    96    97    1
    69    96    92   am
    70    31    32    2
    71    31    33   am
    72    91    92    1
    73    91    94    1
    74    98    97    1
    75    98    99    2
    76    33    34    1
    77    95    94    1
    78    15    14    1
    79    15    18    1
    80    37    34    1
    81    34    35    1
    82    92    93    2
    83    18    19    1
    84    35    36    2
    85    35    42   am
    86    19    20    2
    87    19    21   am
    88    51    52    2
    89    51    50    1
    90    53    50    1
    91    53    54    1
    92    42    43    1
    93    50    49    1
    94    49    44   am
    95    44    43    1
    96    44    45    2
    97    43    46    1
    98    46    47    1
    99    46    48    1
