@<TRIPOS>MOLECULE
tmp/3a1uA00.pdb
 123 120 0 0 0
SMALL
GASTEIGER

@<TRIPOS>ATOM
      1  N         -5.4400  -46.9900   -9.8800 N.3    10  PRO10      -0.2102
      2  CA        -5.3610  -46.0250   -8.7800 C.3    10  PRO10       0.1504
      3  C         -5.5360  -46.6510   -7.3890 C.2    10  PRO10       0.2576
      4  O         -6.4250  -47.4920   -7.1650 O.2    10  PRO10      -0.2718
      5  CB        -6.5110  -45.0530   -9.0860 C.3    10  PRO10       0.0282
      6  CG        -6.6180  -45.0910  -10.5930 C.3    10  PRO10       0.0208
      7  CD        -6.3430  -46.5470  -10.9580 C.3    10  PRO10       0.0893
      8  N         -4.6640  -46.2490   -6.4700 N.am   11  ASN11      -0.1961
      9  CA        -4.8410  -46.5290   -5.0570 C.3    11  ASN11       0.1819
     10  C         -4.7790  -48.0000   -4.6460 C.2    11  ASN11       0.2621
     11  O         -5.4460  -48.3990   -3.7050 O.2    11  ASN11      -0.2715
     12  CB        -6.1490  -45.8870   -4.5870 C.3    11  ASN11       0.1195
     13  CG        -6.1690  -44.4000   -4.8610 C.2    11  ASN11       0.2630
     14  OD1       -5.2320  -43.7100   -4.5270 O.2    11  ASN11      -0.2716
     15  ND2       -7.2120  -43.9170   -5.5070 N.am   11  ASN11      -0.0877
     16  N         -3.9720  -48.7950   -5.3430 N.am   12  VAL12      -0.1963
     17  CA        -3.8510  -50.2200   -5.0130 C.3    12  VAL12       0.1727
     18  C         -2.6200  -50.5020   -4.1570 C.2    12  VAL12       0.2617
     19  O         -2.4230  -51.6260   -3.7000 O.2    12  VAL12      -0.2715
     20  CB        -3.7560  -51.0920   -6.2760 C.3    12  VAL12       0.0290
     21  CG1       -5.0550  -51.0220   -7.0780 C.3    12  VAL12       0.0023
     22  CG2       -2.5650  -50.6620   -7.1210 C.3    12  VAL12       0.0023
     23  N         -1.7810  -49.4900   -3.9660 N.am   13  GLY13      -0.1940
     24  CA        -0.6150  -49.6140   -3.1040 C.3    13  GLY13       0.2014
     25  C          0.7350  -49.5960   -3.8060 C.2    13  GLY13       0.2639
     26  O          1.7200  -50.0820   -3.2510 O.2    13  GLY13      -0.2714
     27  N          0.7890  -49.0350   -5.0140 N.am   14  LYS14      -0.1963
     28  CA         2.0360  -48.9440   -5.7720 C.3    14  LYS14       0.1728
     29  C          3.1100  -48.1930   -4.9880 C.2    14  LYS14       0.2617
     30  O          4.2280  -48.6790   -4.8070 O.2    14  LYS14      -0.2715
     31  CB         1.8140  -48.2480   -7.1200 C.3    14  LYS14       0.0311
     32  CG         0.9080  -48.9940   -8.1040 C.3    14  LYS14       0.0038
     33  CD         0.8080  -48.2310   -9.4300 C.3    14  LYS14       0.0206
     34  CE         0.1670  -46.8530   -9.2460 C.3    14  LYS14       0.1093
     35  NZ        -1.2230  -46.8960   -8.6600 N.3    14  LYS14      -0.1314
     36  N          2.7710  -46.9990   -4.5190 N.am   15  THR15      -0.1937
     37  CA         3.7730  -46.1700   -3.8580 C.3    15  THR15       0.2028
     38  C          4.2150  -46.7410   -2.5140 C.2    15  THR15       0.2642
     39  O          5.3900  -46.6460   -2.1520 O.2    15  THR15      -0.2714
     40  CB         3.3000  -44.7210   -3.7280 C.3    15  THR15       0.1808
     41  OG1        3.1110  -44.1970   -5.0450 O.3    15  THR15      -0.2208
     42  CG2        4.3580  -43.8820   -3.0220 C.3    15  THR15       0.0379
     43  N          3.2900  -47.3660   -1.7940 N.am   16  SER16      -0.1949
     44  CA         3.6440  -47.9970   -0.5280 C.3    16  SER16       0.1924
     45  C          4.6700  -49.0970   -0.7600 C.2    16  SER16       0.2314
     46  O          5.6310  -49.2410   -0.0010 O.2    16  SER16      -0.2863
     47  CB         2.4100  -48.5650    0.1650 C.3    16  SER16       0.2116
     48  OG         1.5600  -47.5210    0.6000 O.3    16  SER16      -0.2180
     49  N          7.7800  -45.6890  -10.4360 N.3    54  ASP54      -0.1225
     50  CA         6.4300  -45.7480   -9.8760 C.3    54  ASP54       0.1805
     51  C          5.4370  -45.0340  -10.8110 C.2    54  ASP54       0.2598
     52  O          5.3380  -43.8110  -10.7950 O.2    54  ASP54      -0.2718
     53  CB         6.4540  -45.0920   -8.4930 C.3    54  ASP54       0.1424
     54  CG         5.1140  -45.1450   -7.7780 C.2    54  ASP54       0.3668
     55  OD1        4.2330  -45.9400   -8.1730 O.co2  54  ASP54      -0.2456
     56  OD2        4.9570  -44.3790   -6.8000 O.co2  54  ASP54      -0.2456
     57  N          4.7050  -45.8030  -11.6190 N.am   55  LEU55      -0.1966
     58  CA         3.8600  -45.2400  -12.6780 C.3    55  LEU55       0.1713
     59  C          2.5610  -44.6440  -12.1580 C.2    55  LEU55       0.2458
     60  O          2.0780  -45.0370  -11.0980 O.2    55  LEU55      -0.2730
     61  CB         3.5190  -46.3180  -13.7130 C.3    55  LEU55       0.0310
     62  CG         4.6890  -46.8260  -14.5560 C.3    55  LEU55       0.0022
     63  CD1        4.2270  -47.9230  -15.5140 C.3    55  LEU55       0.0001
     64  CD2        5.3430  -45.6690  -15.3130 C.3    55  LEU55       0.0001
     65  N          1.9790  -43.6970  -12.9150 N.am   56  PRO56      -0.2716
     66  CA         0.6410  -43.2000  -12.5820 C.3    56  PRO56       0.1536
     67  C         -0.3700  -44.3500  -12.5180 C.2    56  PRO56       0.2599
     68  O         -0.2440  -45.3110  -13.2730 O.2    56  PRO56      -0.2715
     69  CB         0.3100  -42.2740  -13.7590 C.3    56  PRO56       0.0310
     70  CG         1.6470  -41.8250  -14.2730 C.3    56  PRO56       0.0237
     71  CD         2.5510  -43.0200  -14.0930 C.3    56  PRO56       0.0939
     72  N         -1.3380  -44.2570  -11.6100 N.am   57  GLY57      -0.1955
     73  CA        -2.4280  -45.2170  -11.5410 C.3    57  GLY57       0.1869
     74  C         -3.3390  -45.1550  -12.7590 C.2    57  GLY57       0.2309
     75  O         -3.7350  -44.0720  -13.1980 O.2    57  GLY57      -0.2863
     76  N         -0.8520  -57.3160   -3.4170 N.3   114  THR114     -0.1203
     77  CA        -0.4630  -56.5550   -2.2420 C.3   114  THR114      0.1994
     78  C         -1.6270  -56.3340   -1.2720 C.2   114  THR114      0.2617
     79  O         -2.7610  -56.7380   -1.5500 O.2   114  THR114     -0.2717
     80  CB         0.2760  -55.2440   -2.6200 C.3   114  THR114      0.1784
     81  OG1        1.1480  -54.8680   -1.5510 O.3   114  THR114     -0.2211
     82  CG2       -0.7080  -54.0950   -2.9410 C.3   114  THR114      0.0376
     83  N         -1.3200  -55.7170   -0.1360 N.am  115  ALA115     -0.1979
     84  CA        -2.2400  -55.6080    0.9930 C.3   115  ALA115      0.1597
     85  C         -2.7630  -56.9870    1.3900 C.2   115  ALA115      0.2287
     86  O         -3.9260  -57.1430    1.7630 O.2   115  ALA115     -0.2864
     87  CB        -3.3850  -54.6560    0.6740 C.3   115  ALA115      0.0319
     88  N         -2.0650  -58.5560    3.9050 N.3   117  ASP117     -0.1225
     89  CA        -2.3820  -58.4710    5.3340 C.3   117  ASP117      0.1805
     90  C         -3.8510  -58.1210    5.5780 C.2   117  ASP117      0.2597
     91  O         -4.4640  -58.6140    6.5230 O.2   117  ASP117     -0.2718
     92  CB        -1.4760  -57.4560    6.0400 C.3   117  ASP117      0.1424
     93  CG        -1.6040  -56.0650    5.4620 C.2   117  ASP117      0.3668
     94  OD1       -1.2460  -55.8810    4.2790 O.co2 117  ASP117     -0.2456
     95  OD2       -2.0660  -55.1530    6.1840 O.co2 117  ASP117     -0.2456
     96  N         -4.4110  -57.2690    4.7230 N.am  118  GLU118     -0.1979
     97  CA        -5.8200  -56.9000    4.8250 C.3   118  GLU118      0.1602
     98  C         -6.6870  -58.0090    4.2500 C.2   118  GLU118      0.2287
     99  O         -7.7130  -58.3590    4.8230 O.2   118  GLU118     -0.2864
    100  CB        -6.0940  -55.5790    4.0910 C.3   118  GLU118      0.0415
    101  CG        -5.2910  -54.4230    4.6870 C.3   118  GLU118      0.1163
    102  CD        -6.1230  -53.7760    5.7760 C.2   118  GLU118      0.3649
    103  OE1       -7.2710  -54.1880    6.0680 O.co2 118  GLU118     -0.2457
    104  OE2       -5.6100  -52.8480    6.4120 O.co2 118  GLU118     -0.2457
    105  N          2.9390  -57.4150    1.5080 N.3   143  SER143     -0.1202
    106  CA         2.3580  -56.3940    2.3730 C.3   143  SER143      0.2020
    107  C          3.3870  -55.3220    2.6780 C.2   143  SER143      0.2619
    108  O          4.4670  -55.6190    3.1820 O.2   143  SER143     -0.2717
    109  CB         1.8590  -56.9850    3.6880 C.3   143  SER143      0.2103
    110  OG         1.4200  -55.9400    4.5460 O.3   143  SER143     -0.2182
    111  N          3.0450  -54.0780    2.3600 N.am  144  SER144     -0.1937
    112  CA         3.8780  -52.9260    2.7040 C.3   144  SER144      0.2055
    113  C          3.7370  -52.5780    4.1810 C.2   144  SER144      0.2642
    114  O          4.4950  -51.7710    4.7110 O.2   144  SER144     -0.2714
    115  CB         3.5050  -51.7180    1.8410 C.3   144  SER144      0.2130
    116  OG         3.7080  -52.0090    0.4670 O.3   144  SER144     -0.2179
    117  N          2.7650  -53.1950    4.8440 N.am  145  VAL145     -0.1977
    118  CA         2.6040  -53.0210    6.2860 C.3   145  VAL145      0.1596
    119  C          3.4960  -53.9780    7.0780 C.2   145  VAL145      0.2287
    120  O          4.3090  -53.5440    7.8980 O.2   145  VAL145     -0.2864
    121  CB         1.1320  -53.1970    6.7070 C.3   145  VAL145      0.0276
    122  CG1        1.0080  -53.3480    8.2230 C.3   145  VAL145      0.0022
    123  CG2        0.3100  -52.0180    6.2010 C.3   145  VAL145      0.0022
@<TRIPOS>BOND
     1    63    62    1
     2    64    62    1
     3    62    61    1
     4    70    71    1
     5    70    69    1
     6    71    65    1
     7    69    66    1
     8    61    58    1
     9    68    67    2
    10    75    74    2
    11    65    66    1
    12    65    59   am
    13    74    73    1
    14    58    59    1
    15    58    57    1
    16    66    67    1
    17    67    72   am
    18    59    60    2
    19    57    51   am
    20    72    73    1
    21     7     6    1
    22     7     1    1
    23    51    52    2
    24    51    50    1
    25     6     5    1
    26    49    50    1
    27     1     2    1
    28    50    53    1
    29    33    34    1
    30    33    32    1
    31    34    35    1
    32     5     2    1
    33     2     3    1
    34    53    54    1
    35    55    54   ar
    36    32    31    1
    37    54    56   ar
    38     3     4    2
    39     3     8   am
    40    22    20    1
    41    31    28    1
    42    21    20    1
    43     8     9    1
    44    20    17    1
    45    28    27    1
    46    28    29    1
    47    15    13   am
    48    16    17    1
    49    16    10   am
    50     9    10    1
    51     9    12    1
    52    41    40    1
    53    27    25   am
    54    17    18    1
    55    29    30    2
    56    29    36   am
    57    13    12    1
    58    13    14    2
    59    10    11    2
    60    36    37    1
    61    18    23   am
    62    18    19    2
    63    23    24    1
    64    37    40    1
    65    37    38    1
    66    25    26    2
    67    25    24    1
    68    40    42    1
    69    76    77    1
    70    82    80    1
    71    80    77    1
    72    80    81    1
    73    38    39    2
    74    38    43   am
    75    77    78    1
    76    43    44    1
    77    79    78    2
    78    78    83   am
    79    45    44    1
    80    45    46    2
    81    44    47    1
    82    83    84    1
    83    47    48    1
    84   116   115    1
    85    87    84    1
    86    84    85    1
    87    85    86    2
    88   105   106    1
    89   115   112    1
    90   111   107   am
    91   111   112    1
    92   106   107    1
    93   106   109    1
    94   107   108    2
    95   112   113    1
    96   109   110    1
    97    88    89    1
    98   100   101    1
    99   100    97    1
   100   113   114    2
   101   113   117   am
   102    98    99    2
   103    98    97    1
   104    94    93   ar
   105   101   102    1
   106    96    97    1
   107    96    90   am
   108   117   118    1
   109    89    90    1
   110    89    92    1
   111    93    92    1
   112    93    95   ar
   113    90    91    2
   114   102   103   ar
   115   102   104   ar
   116   123   121    1
   117   118   121    1
   118   118   119    1
   119   121   122    1
   120   119   120    2
