@<TRIPOS>MOLECULE
tmp/3a1vA01.pdb
 82 75 0 0 0
SMALL
GASTEIGER

@<TRIPOS>ATOM
      1  N        -21.5180    1.5550    3.9930 N.3    12  ASN12      -0.1225
      2  CA       -22.4650    2.4350    4.6620 C.3    12  ASN12       0.1785
      3  C        -22.1180    3.9230    4.5890 C.2    12  ASN12       0.2597
      4  O        -22.2010    4.6340    5.5930 O.2    12  ASN12      -0.2718
      5  CB       -22.6290    2.0130    6.1240 C.3    12  ASN12       0.1169
      6  CG       -23.3990    0.7630    6.3060 C.2    12  ASN12       0.2627
      7  OD1      -24.5860    0.7640    5.9560 O.2    12  ASN12      -0.2716
      8  ND2      -22.8180   -0.2670    6.7940 N.am   12  ASN12      -0.0877
      9  N        -21.7280    4.3960    3.4080 N.am   13  VAL13      -0.1966
     10  CA       -21.5330    5.8330    3.2040 C.3    13  VAL13       0.1727
     11  C        -22.4380    6.3560    2.0910 C.2    13  VAL13       0.2616
     12  O        -22.3150    7.5000    1.6670 O.2    13  VAL13      -0.2715
     13  CB       -20.0580    6.2100    2.8970 C.3    13  VAL13       0.0290
     14  CG1      -19.1410    5.8030    4.0460 C.3    13  VAL13       0.0023
     15  CG2      -19.6030    5.5830    1.5880 C.3    13  VAL13       0.0023
     16  N        -23.3460    5.5070    1.6210 N.am   14  GLY14      -0.1955
     17  CA       -24.3150    5.9100    0.6180 C.3    14  GLY14       0.1869
     18  C        -23.8790    5.6160   -0.8030 C.2    14  GLY14       0.2309
     19  O        -24.4650    6.1270   -1.7580 O.2    14  GLY14      -0.2863
     20  N        -26.7880    3.9260   -2.7370 N.3    17  SER17      -0.1217
     21  CA       -27.8160    4.9210   -3.0430 C.3    17  SER17       0.1889
     22  C        -27.3980    5.8110   -4.2120 C.2    17  SER17       0.2288
     23  O        -28.1990    6.0800   -5.1070 O.2    17  SER17      -0.2866
     24  CB       -28.1260    5.7880   -1.8230 C.3    17  SER17       0.2089
     25  OG       -28.5070    4.9920   -0.7160 O.3    17  SER17      -0.2183
     26  N        -19.0320    9.9260    3.0440 N.3    89  ASP89      -0.1239
     27  CA       -20.1110   10.3340    3.9320 C.3    89  ASP89       0.1674
     28  C        -19.8220   11.7310    4.4810 C.2    89  ASP89       0.2266
     29  O        -18.8740   11.9260    5.2420 O.2    89  ASP89      -0.2867
     30  CB       -20.2560    9.3320    5.0780 C.3    89  ASP89       0.1410
     31  CG       -21.4040    9.6730    6.0110 C.2    89  ASP89       0.3668
     32  OD1      -22.1410   10.6400    5.7290 O.co2  89  ASP89      -0.2456
     33  OD2      -21.5670    8.9710    7.0290 O.co2  89  ASP89      -0.2456
     34  N        -21.2940   13.5620    6.6430 N.3    91  VAL91      -0.1231
     35  CA       -21.4890   13.7520    8.0780 C.3    91  VAL91       0.1692
     36  C        -20.3280   13.1710    8.8900 C.2    91  VAL91       0.2592
     37  O        -19.8800   13.7700    9.8680 O.2    91  VAL91      -0.2718
     38  CB       -22.8140   13.1280    8.5540 C.3    91  VAL91       0.0266
     39  CG1      -22.9490   13.2560   10.0640 C.3    91  VAL91       0.0020
     40  CG2      -23.9920   13.7840    7.8420 C.3    91  VAL91       0.0020
     41  N        -19.8510   11.9990    8.4790 N.am   92  ASN92      -0.1974
     42  CA       -18.6890   11.3730    9.1030 C.3    92  ASN92       0.1688
     43  C        -17.6560   11.0060    8.0440 C.2    92  ASN92       0.2292
     44  O        -17.5900    9.8570    7.6110 O.2    92  ASN92      -0.2864
     45  CB       -19.1070   10.1300    9.8910 C.3    92  ASN92       0.1181
     46  CG       -20.1800   10.4290   10.9230 C.2    92  ASN92       0.2629
     47  OD1      -20.0430   11.3470   11.7330 O.2    92  ASN92      -0.2716
     48  ND2      -21.2560    9.6520   10.9000 N.am   92  ASN92      -0.0877
     49  N        -21.5490   12.7860   -0.3630 N.3   115  THR115     -0.1203
     50  CA       -22.9670   12.4450   -0.4380 C.3   115  THR115      0.1994
     51  C        -23.6950   12.6940    0.8810 C.2   115  THR115      0.2617
     52  O        -23.0710   13.0170    1.8900 O.2   115  THR115     -0.2717
     53  CB       -23.1580   10.9620   -0.8280 C.3   115  THR115      0.1784
     54  OG1      -22.5890   10.1220    0.1860 O.3   115  THR115     -0.2211
     55  CG2      -22.4900   10.6620   -2.1630 C.3   115  THR115      0.0376
     56  N        -25.0130   12.4990    0.8670 N.am  116  ALA116     -0.1979
     57  CA       -25.8540   12.7240    2.0400 C.3   116  ALA116      0.1597
     58  C        -25.6670   14.1470    2.5450 C.2   116  ALA116      0.2287
     59  O        -25.6640   14.3990    3.7500 O.2   116  ALA116     -0.2864
     60  CB       -25.5470   11.7140    3.1370 C.3   116  ALA116      0.0319
     61  N        -28.2760   15.6810    4.8240 N.3   119  GLU119     -0.1245
     62  CA       -28.1620   15.3260    6.2340 C.3   119  GLU119      0.1567
     63  C        -27.1600   16.2480    6.9180 C.2   119  GLU119      0.2260
     64  O        -27.3450   16.6420    8.0700 O.2   119  GLU119     -0.2867
     65  CB       -27.7480   13.8610    6.3960 C.3   119  GLU119      0.0388
     66  CG       -28.7770   12.9100    5.7840 C.3   119  GLU119      0.1160
     67  CD       -29.7890   12.5500    6.8530 C.2   119  GLU119      0.3649
     68  OE1      -29.7110   13.0040    8.0200 O.co2 119  GLU119     -0.2457
     69  OE2      -30.7350   11.8260    6.5240 O.co2 119  GLU119     -0.2457
     70  N        -28.5610   11.5810   -2.7110 N.3   145  SER145     -0.1202
     71  CA       -29.3820   10.5870   -3.3900 C.3   145  SER145      0.2020
     72  C        -30.8500   10.7840   -3.0340 C.2   145  SER145      0.2618
     73  O        -31.7390   10.3430   -3.7640 O.2   145  SER145     -0.2717
     74  CB       -28.9380    9.1710   -3.0190 C.3   145  SER145      0.2103
     75  OG       -27.6500    8.8830   -3.5350 O.3   145  SER145     -0.2182
     76  N        -31.0960   11.4510   -1.9100 N.am  146  VAL146     -0.1979
     77  CA       -32.4580   11.6830   -1.4340 C.3   146  VAL146      0.1595
     78  C        -33.1430   12.8320   -2.1640 C.2   146  VAL146      0.2287
     79  O        -34.2960   12.7150   -2.5740 O.2   146  VAL146     -0.2864
     80  CB       -32.4910   11.9900    0.0740 C.3   146  VAL146      0.0276
     81  CG1      -33.8570   12.5140    0.4740 C.3   146  VAL146      0.0022
     82  CG2      -32.1360   10.7500    0.8770 C.3   146  VAL146      0.0022
@<TRIPOS>BOND
     1    23    22    2
     2    22    21    1
     3    73    72    2
     4    75    74    1
     5    71    72    1
     6    71    74    1
     7    71    70    1
     8    21    20    1
     9    21    24    1
    10    72    76   am
    11    79    78    2
    12    78    77    1
    13    55    53    1
    14    76    77    1
    15    24    25    1
    16    19    18    2
    17    77    80    1
    18    53    50    1
    19    53    54    1
    20    18    17    1
    21    50    49    1
    22    50    51    1
    23    80    81    1
    24    80    82    1
    25    17    16    1
    26    56    51   am
    27    56    57    1
    28    51    52    2
    29    15    13    1
    30    16    11   am
    31    12    11    2
    32    57    58    1
    33    57    60    1
    34    11    10    1
    35    58    59    2
    36    13    10    1
    37    13    14    1
    38    26    27    1
    39    10     9    1
    40     9     3   am
    41    27    28    1
    42    27    30    1
    43     1     2    1
    44    28    29    2
    45     3     2    1
    46     3     4    2
    47     2     5    1
    48    61    62    1
    49    30    31    1
    50    32    31   ar
    51    66    65    1
    52    66    67    1
    53     7     6    2
    54    31    33   ar
    55     5     6    1
    56    62    65    1
    57    62    63    1
    58     6     8   am
    59    69    67   ar
    60    34    35    1
    61    67    68   ar
    62    63    64    2
    63    44    43    2
    64    40    38    1
    65    43    42    1
    66    35    38    1
    67    35    36    1
    68    41    36   am
    69    41    42    1
    70    38    39    1
    71    36    37    2
    72    42    45    1
    73    45    46    1
    74    48    46   am
    75    46    47    2
