@<TRIPOS>MOLECULE
tmp/3a1zD01.pdb
 95 87 0 0 0
SMALL
GASTEIGER

@<TRIPOS>ATOM
      1  N         53.6100   67.5470  120.7140 N.3    54  ILE54      -0.1245
      2  CA        54.7740   67.4540  119.8430 C.3    54  ILE54       0.1561
      3  C         54.7790   66.0280  119.3670 C.2    54  ILE54       0.2260
      4  O         54.7140   65.1120  120.1740 O.2    54  ILE54      -0.2867
      5  CB        56.1140   67.7700  120.5770 C.3    54  ILE54       0.0252
      6  CG1       56.1300   69.1830  121.1890 C.3    54  ILE54       0.0019
      7  CG2       57.2940   67.5800  119.6510 C.3    54  ILE54       0.0019
      8  CD1       55.2560   70.2200  120.4740 C.3    54  ILE54       0.0001
      9  N         56.9550   63.2750  117.5190 N.3    56  PHE56      -0.1241
     10  CA        58.2540   62.9890  116.9290 C.3    56  PHE56       0.1605
     11  C         58.1540   61.7630  116.0760 C.2    56  PHE56       0.2264
     12  O         57.5400   60.7620  116.4640 O.2    56  PHE56      -0.2867
     13  CB        59.3470   62.7050  117.9760 C.3    56  PHE56       0.0534
     14  CG        59.7290   63.8800  118.8480 C.ar   56  PHE56      -0.0203
     15  CD1       60.6540   64.8150  118.4060 C.ar   56  PHE56      -0.0042
     16  CD2       59.2180   63.9930  120.1460 C.ar   56  PHE56      -0.0042
     17  CE1       61.0660   65.8600  119.2290 C.ar   56  PHE56      -0.0003
     18  CE2       59.5890   65.0360  120.9840 C.ar   56  PHE56      -0.0003
     19  CZ        60.5260   65.9870  120.5320 C.ar   56  PHE56      -0.0000
     20  N         60.1170   66.3240  113.5260 N.3    95  ILE95      -0.1245
     21  CA        59.1910   66.8270  114.5130 C.3    95  ILE95       0.1561
     22  C         57.9810   67.5090  113.8800 C.2    95  ILE95       0.2260
     23  O         58.1340   68.2520  112.9000 O.2    95  ILE95      -0.2867
     24  CB        59.9100   67.8200  115.5230 C.3    95  ILE95       0.0252
     25  CG1       58.9460   68.3310  116.5880 C.3    95  ILE95       0.0019
     26  CG2       60.6130   68.9720  114.8170 C.3    95  ILE95       0.0019
     27  CD1       59.6740   69.1150  117.6620 C.3    95  ILE95       0.0001
     28  N         54.9310   70.1630  115.2740 N.3    97  ILE97      -0.1245
     29  CA        54.4160   70.9240  116.3890 C.3    97  ILE97       0.1561
     30  C         52.9480   71.2450  116.1160 C.2    97  ILE97       0.2260
     31  O         52.5990   72.1100  115.3180 O.2    97  ILE97      -0.2867
     32  CB        55.2420   72.2130  116.7050 C.3    97  ILE97       0.0252
     33  CG1       56.6500   71.8470  117.1890 C.3    97  ILE97       0.0019
     34  CG2       54.5870   73.0270  117.7820 C.3    97  ILE97       0.0019
     35  CD1       57.6440   72.9470  116.9060 C.3    97  ILE97       0.0001
     36  N         64.5690   68.1350  114.3040 N.3   110  TYR110     -0.1241
     37  CA        64.8770   68.3170  115.6870 C.3   110  TYR110      0.1605
     38  C         66.1270   67.5060  115.9770 C.2   110  TYR110      0.2264
     39  O         66.2450   66.3130  115.5770 O.2   110  TYR110     -0.2867
     40  CB        63.7000   67.8060  116.4880 C.3   110  TYR110      0.0534
     41  CG        63.9100   67.8100  117.9630 C.ar  110  TYR110     -0.0201
     42  CD1       64.5150   66.7230  118.5970 C.ar  110  TYR110     -0.0009
     43  CD2       63.4880   68.8960  118.7370 C.ar  110  TYR110     -0.0009
     44  CE1       64.7120   66.7260  119.9570 C.ar  110  TYR110      0.0417
     45  CE2       63.6780   68.9100  120.1040 C.ar  110  TYR110      0.0417
     46  CZ        64.2940   67.8200  120.7020 C.ar  110  TYR110      0.1957
     47  OH        64.4590   67.8020  122.0680 O.3   110  TYR110     -0.2866
     48  N         69.4580   72.1690  121.9610 N.3   153  ILE153     -0.1245
     49  CA        68.3390   71.8950  121.0700 C.3   153  ILE153      0.1561
     50  C         68.4040   72.7280  119.7870 C.2   153  ILE153      0.2260
     51  O         68.5580   73.9250  119.8190 O.2   153  ILE153     -0.2867
     52  CB        66.9840   72.2500  121.7400 C.3   153  ILE153      0.0252
     53  CG1       66.7350   71.4010  122.9880 C.3   153  ILE153      0.0019
     54  CG2       65.8470   72.1040  120.7570 C.3   153  ILE153      0.0019
     55  CD1       66.5230   69.9400  122.6900 C.3   153  ILE153      0.0001
     56  N         66.3140   73.4290  116.0240 N.3   155  LEU155     -0.1245
     57  CA        65.2130   73.1910  115.1170 C.3   155  LEU155      0.1561
     58  C         65.7450   73.3840  113.6800 C.2   155  LEU155      0.2260
     59  O         66.7250   74.0780  113.4810 O.2   155  LEU155     -0.2867
     60  CB        64.0560   74.1290  115.4690 C.3   155  LEU155      0.0270
     61  CG        63.3850   73.7570  116.8050 C.3   155  LEU155      0.0019
     62  CD1       62.0340   74.4280  116.9880 C.3   155  LEU155      0.0001
     63  CD2       63.2210   72.2460  116.9060 C.3   155  LEU155      0.0001
     64  N         57.7100   77.7050  127.6570 N.3   172  LEU172     -0.1245
     65  CA        58.2960   76.6950  126.7810 C.3   172  LEU172      0.1561
     66  C         59.4880   75.9590  127.3920 C.2   172  LEU172      0.2260
     67  O         59.9760   74.9880  126.8120 O.2   172  LEU172     -0.2867
     68  CB        58.6610   77.2910  125.4070 C.3   172  LEU172      0.0270
     69  CG        58.9460   78.8010  125.3440 C.3   172  LEU172      0.0019
     70  CD1       60.1340   79.1170  124.4250 C.3   172  LEU172      0.0001
     71  CD2       57.6750   79.6210  124.9780 C.3   172  LEU172      0.0001
     72  N         58.3280   72.5920  128.1480 N.3   175  LEU175     -0.1231
     73  CA        58.1350   71.7670  126.9810 C.3   175  LEU175      0.1693
     74  C         59.4290   71.1060  126.5120 C.2   175  LEU175      0.2591
     75  O         59.4830   69.8820  126.2890 O.2   175  LEU175     -0.2718
     76  CB        57.5320   72.5730  125.8470 C.3   175  LEU175      0.0284
     77  CG        57.0650   71.6710  124.6990 C.3   175  LEU175      0.0019
     78  CD1       56.0830   70.6380  125.2070 C.3   175  LEU175      0.0001
     79  CD2       56.4520   72.5150  123.6250 C.3   175  LEU175      0.0001
     80  N         60.4640   71.9290  126.3550 N.am  176  ARG176     -0.1980
     81  CA        61.7740   71.4400  125.9950 C.3   176  ARG176      0.1597
     82  C         62.1470   70.2800  126.9080 C.2   176  ARG176      0.2287
     83  O         62.6970   69.2750  126.4730 O.2   176  ARG176     -0.2864
     84  CB        62.7920   72.5590  126.1530 C.3   176  ARG176      0.0334
     85  CG        64.1880   72.1670  125.7370 C.3   176  ARG176      0.0492
     86  CD        65.1620   73.3020  125.9760 C.3   176  ARG176      0.2205
     87  NE        65.5700   73.3530  127.3860 N.pl3 176  ARG176     -0.0865
     88  CZ        66.5340   74.1360  127.8610 C.cat 176  ARG176      0.5346
     89  NH1       67.1910   74.9410  127.0430 N.pl3 176  ARG176      0.1354
     90  NH2       66.8340   74.1210  129.1540 N.pl3 176  ARG176      0.1354
     91  N         59.9170   66.9400  126.6340 N.3   179  ALA179     -0.1245
     92  CA        60.2470   66.2300  125.4070 C.3   179  ALA179      0.1562
     93  C         61.4990   65.3630  125.5690 C.2   179  ALA179      0.2260
     94  O         61.5260   64.2070  125.1640 O.2   179  ALA179     -0.2867
     95  CB        60.3980   67.2050  124.2440 C.3   179  ALA179      0.0290
@<TRIPOS>BOND
     1    23    22    2
     2    59    58    2
     3    20    21    1
     4    58    57    1
     5    22    21    1
     6    36    37    1
     7    21    24    1
     8    26    24    1
     9    57    60    1
    10    57    56    1
    11    28    29    1
    12    31    30    2
    13    60    61    1
    14    24    25    1
    15    39    38    2
    16    37    38    1
    17    37    40    1
    18    11    12    2
    19    11    10    1
    20    30    29    1
    21    29    32    1
    22    40    41    1
    23    25    27    1
    24    32    33    1
    25    32    34    1
    26    61    63    1
    27    61    62    1
    28    35    33    1
    29    10     9    1
    30    10    13    1
    31    41    42   ar
    32    41    43   ar
    33    13    14    1
    34    15    14   ar
    35    15    17   ar
    36    42    44   ar
    37    43    45   ar
    38    14    16   ar
    39    17    19   ar
    40     3     2    1
    41     3     4    2
    42     7     5    1
    43    50    51    2
    44    50    49    1
    45     2     5    1
    46     2     1    1
    47    44    46   ar
    48    45    46   ar
    49    16    18   ar
    50     8     6    1
    51    19    18   ar
    52     5     6    1
    53    46    47    1
    54    54    52    1
    55    49    52    1
    56    49    48    1
    57    52    53    1
    58    55    53    1
    59    79    77    1
    60    95    92    1
    61    70    69    1
    62    77    78    1
    63    77    76    1
    64    71    69    1
    65    94    93    2
    66    69    68    1
    67    92    93    1
    68    92    91    1
    69    68    65    1
    70    85    86    1
    71    85    84    1
    72    76    73    1
    73    86    87    1
    74    81    84    1
    75    81    80    1
    76    81    82    1
    77    75    74    2
    78    80    74   am
    79    83    82    2
    80    74    73    1
    81    65    66    1
    82    65    64    1
    83    67    66    2
    84    73    72    1
    85    89    88    1
    86    87    88    2
    87    88    90    1
