@<TRIPOS>MOLECULE
tmp/3a1zD00.pdb
 124 118 0 0 0
SMALL
GASTEIGER

@<TRIPOS>ATOM
      1  N         78.0100   44.8030  140.2020 N.3    11  LEU11      -0.1245
      2  CA        76.7780   44.6330  139.4590 C.3    11  LEU11       0.1561
      3  C         76.6850   45.7410  138.3930 C.2    11  LEU11       0.2260
      4  O         76.5810   45.4550  137.1980 O.2    11  LEU11      -0.2867
      5  CB        75.5810   44.6180  140.4100 C.3    11  LEU11       0.0270
      6  CG        75.5070   43.3940  141.3450 C.3    11  LEU11       0.0019
      7  CD1       74.3050   43.4970  142.2750 C.3    11  LEU11       0.0001
      8  CD2       75.4850   42.0620  140.5810 C.3    11  LEU11       0.0001
      9  N         76.3210   45.1270  134.3890 N.3    15  THR15      -0.1218
     10  CA        75.2030   45.6780  133.6480 C.3    15  THR15       0.1862
     11  C         75.7340   46.5510  132.5220 C.2    15  THR15       0.2287
     12  O         75.5970   46.2330  131.3370 O.2    15  THR15      -0.2866
     13  CB        74.3320   46.5800  134.5520 C.3    15  THR15       0.1770
     14  OG1       73.9730   45.8800  135.7570 O.3    15  THR15      -0.2211
     15  CG2       73.0650   47.0360  133.8160 C.3    15  THR15       0.0375
     16  N         73.7580   51.4650  142.2900 N.3    72  PHE72      -0.1241
     17  CA        72.9610   50.2820  142.0300 C.3    72  PHE72       0.1605
     18  C         72.5990   49.6470  143.3450 C.2    72  PHE72       0.2264
     19  O         73.4750   49.2090  144.0710 O.2    72  PHE72      -0.2867
     20  CB        73.7610   49.3020  141.1940 C.3    72  PHE72       0.0534
     21  CG        72.9880   48.0970  140.7710 C.ar   72  PHE72      -0.0203
     22  CD1       72.4860   47.2190  141.7080 C.ar   72  PHE72      -0.0042
     23  CD2       72.7810   47.8270  139.4250 C.ar   72  PHE72      -0.0042
     24  CE1       71.7820   46.0950  141.3190 C.ar   72  PHE72      -0.0003
     25  CE2       72.0810   46.7050  139.0190 C.ar   72  PHE72      -0.0003
     26  CZ        71.5810   45.8320  139.9700 C.ar   72  PHE72      -0.0000
     27  N         70.1610   46.8680  145.3320 N.3    74  MET74      -0.1245
     28  CA        69.3180   45.6940  145.2450 C.3    74  MET74       0.1570
     29  C         68.8470   45.2440  146.6360 C.2    74  MET74       0.2261
     30  O         69.6080   44.6630  147.4070 O.2    74  MET74      -0.2867
     31  CB        70.1050   44.5790  144.5750 C.3    74  MET74       0.0387
     32  CG        69.2640   43.4060  144.1340 C.3    74  MET74       0.0595
     33  SD        70.2120   42.1210  143.2620 S.3    74  MET74      -0.1393
     34  CE        68.9700   40.8060  143.1650 C.3    74  MET74       0.0692
     35  N         64.7790   46.7200  142.5840 N.3    81  VAL81      -0.1245
     36  CA        66.0580   47.2420  142.0980 C.3    81  VAL81       0.1561
     37  C         65.9140   48.7250  141.8620 C.2    81  VAL81       0.2260
     38  O         64.8200   49.2190  141.6180 O.2    81  VAL81      -0.2867
     39  CB        66.6000   46.5150  140.8150 C.3    81  VAL81       0.0252
     40  CG1       67.7200   47.3270  140.1600 C.3    81  VAL81       0.0019
     41  CG2       67.0950   45.1080  141.1390 C.3    81  VAL81       0.0019
     42  N         62.3870   48.9030  139.5750 N.3   122  TYR122     -0.1241
     43  CA        61.5040   47.8250  139.2470 C.3   122  TYR122      0.1605
     44  C         61.6590   46.7260  140.2410 C.2   122  TYR122      0.2264
     45  O         62.7460   46.4830  140.7460 O.2   122  TYR122     -0.2867
     46  CB        61.7880   47.2920  137.8450 C.3   122  TYR122      0.0534
     47  CG        63.1980   46.7720  137.6140 C.ar  122  TYR122     -0.0201
     48  CD1       63.5770   45.5010  138.0430 C.ar  122  TYR122     -0.0009
     49  CD2       64.1340   47.5470  136.9320 C.ar  122  TYR122     -0.0009
     50  CE1       64.8430   45.0270  137.8040 C.ar  122  TYR122      0.0417
     51  CE2       65.3990   47.0850  136.6960 C.ar  122  TYR122      0.0417
     52  CZ        65.7530   45.8370  137.1380 C.ar  122  TYR122      0.1957
     53  OH        67.0280   45.3960  136.8870 O.3   122  TYR122     -0.2866
     54  N         61.2950   42.5640  141.0810 N.3   124  TYR124     -0.1241
     55  CA        61.6010   41.3510  140.3840 C.3   124  TYR124      0.1605
     56  C         61.1000   40.1830  141.2220 C.2   124  TYR124      0.2264
     57  O         60.5990   40.3710  142.3200 O.2   124  TYR124     -0.2867
     58  CB        63.1060   41.2550  140.1140 C.3   124  TYR124      0.0534
     59  CG        63.9740   41.0590  141.3460 C.ar  124  TYR124     -0.0201
     60  CD1       64.3420   42.1460  142.1480 C.ar  124  TYR124     -0.0009
     61  CD2       64.4470   39.7840  141.6970 C.ar  124  TYR124     -0.0009
     62  CE1       65.1380   41.9680  143.2740 C.ar  124  TYR124      0.0417
     63  CE2       65.2390   39.5940  142.8120 C.ar  124  TYR124      0.0417
     64  CZ        65.5850   40.6900  143.6000 C.ar  124  TYR124      0.1957
     65  OH        66.3790   40.5050  144.7140 O.3   124  TYR124     -0.2866
     66  N         66.0360   35.4260  137.4460 N.3   136  PHE136     -0.1241
     67  CA        65.3690   36.6670  137.7960 C.3   136  PHE136      0.1605
     68  C         64.3170   36.9230  136.7260 C.2   136  PHE136      0.2264
     69  O         64.4510   36.4660  135.5910 O.2   136  PHE136     -0.2867
     70  CB        66.3460   37.8300  137.7900 C.3   136  PHE136      0.0534
     71  CG        67.3610   37.7780  138.8730 C.ar  136  PHE136     -0.0203
     72  CD1       67.0390   38.1800  140.1540 C.ar  136  PHE136     -0.0042
     73  CD2       68.6630   37.3760  138.5960 C.ar  136  PHE136     -0.0042
     74  CE1       68.0010   38.1650  141.1430 C.ar  136  PHE136     -0.0003
     75  CE2       69.6320   37.3530  139.5860 C.ar  136  PHE136     -0.0003
     76  CZ        69.3020   37.7460  140.8520 C.ar  136  PHE136     -0.0000
     77  N         62.4420   40.3760  135.5200 N.3   138  VAL138     -0.1245
     78  CA        62.3160   41.7990  135.7370 C.3   138  VAL138      0.1561
     79  C         60.8710   42.2340  135.4880 C.2   138  VAL138      0.2260
     80  O         60.3250   41.9720  134.4310 O.2   138  VAL138     -0.2867
     81  CB        63.2890   42.5710  134.8110 C.3   138  VAL138      0.0252
     82  CG1       63.0430   44.0620  134.8840 C.3   138  VAL138      0.0019
     83  CG2       64.7030   42.2420  135.1700 C.3   138  VAL138      0.0019
     84  N         67.9740   44.3170  129.7570 N.3   195  ILE195     -0.1245
     85  CA        68.3070   43.7320  131.0250 C.3   195  ILE195      0.1561
     86  C         67.2920   42.6110  131.2650 C.2   195  ILE195      0.2260
     87  O         67.6590   41.4690  131.6000 O.2   195  ILE195     -0.2867
     88  CB        68.1940   44.7720  132.1640 C.3   195  ILE195      0.0252
     89  CG1       69.2550   45.8520  132.0120 C.3   195  ILE195      0.0019
     90  CG2       68.2340   44.1120  133.5360 C.3   195  ILE195      0.0019
     91  CD1       68.8810   47.0980  132.7460 C.3   195  ILE195      0.0001
     92  N         68.1600   39.6680  129.4260 N.3   198  SER198     -0.1202
     93  CA        69.3180   38.9360  129.9170 C.3   198  SER198      0.2020
     94  C         68.9090   37.9780  131.0480 C.2   198  SER198      0.2618
     95  O         69.2340   36.7860  131.0020 O.2   198  SER198     -0.2717
     96  CB        70.4370   39.8800  130.3370 C.3   198  SER198      0.2103
     97  OG        70.1550   40.4950  131.5810 O.3   198  SER198     -0.2182
     98  N         68.1480   38.4730  132.0270 N.am  199  ALA199     -0.1979
     99  CA        67.6420   37.6050  133.0930 C.3   199  ALA199      0.1597
    100  C         66.9670   36.3790  132.5350 C.2   199  ALA199      0.2287
    101  O         67.0760   35.2910  133.1040 O.2   199  ALA199     -0.2864
    102  CB        66.6990   38.3390  134.0110 C.3   199  ALA199      0.0319
    103  N         74.8750   35.7460  137.3250 N.3   207  PHE207     -0.1227
    104  CA        75.0760   37.1200  137.7700 C.3   207  PHE207      0.1736
    105  C         75.8800   37.1800  139.0620 C.2   207  PHE207      0.2595
    106  O         76.3260   38.2490  139.4640 O.2   207  PHE207     -0.2718
    107  CB        73.7370   37.8570  137.9180 C.3   207  PHE207      0.0547
    108  CG        72.9530   37.9260  136.6450 C.ar  207  PHE207     -0.0202
    109  CD1       73.1880   38.9320  135.7290 C.ar  207  PHE207     -0.0042
    110  CD2       72.0050   36.9630  136.3500 C.ar  207  PHE207     -0.0042
    111  CE1       72.4900   38.9920  134.5450 C.ar  207  PHE207     -0.0003
    112  CE2       71.3000   37.0140  135.1740 C.ar  207  PHE207     -0.0003
    113  CZ        71.5470   38.0350  134.2610 C.ar  207  PHE207     -0.0000
    114  N         76.0720   36.0340  139.7090 N.am  208  PHE208     -0.1976
    115  CA        76.8470   35.9930  140.9530 C.3   208  PHE208      0.1639
    116  C         77.6790   34.7300  141.1080 C.2   208  PHE208      0.2290
    117  O         77.1320   33.6770  141.4460 O.2   208  PHE208     -0.2864
    118  CB        75.9200   36.0760  142.1510 C.3   208  PHE208      0.0560
    119  CG        75.0480   37.2740  142.1560 C.ar  208  PHE208     -0.0200
    120  CD1       75.5450   38.5030  142.5670 C.ar  208  PHE208     -0.0042
    121  CD2       73.7210   37.1750  141.7760 C.ar  208  PHE208     -0.0042
    122  CE1       74.7270   39.6200  142.5850 C.ar  208  PHE208     -0.0003
    123  CE2       72.8970   38.2800  141.7970 C.ar  208  PHE208     -0.0003
    124  CZ        73.4010   39.5060  142.1990 C.ar  208  PHE208     -0.0000
@<TRIPOS>BOND
     1    92    93    1
     2    84    85    1
     3    93    96    1
     4    93    94    1
     5    96    97    1
     6    95    94    2
     7    85    86    1
     8    85    88    1
     9    94    98   am
    10    86    87    2
    11    12    11    2
    12    89    88    1
    13    89    91    1
    14    98    99    1
    15    88    90    1
    16    11    10    1
    17   100    99    1
    18   100   101    2
    19    99   102    1
    20    10     9    1
    21    10    13    1
    22    15    13    1
    23   113   111   ar
    24   113   112   ar
    25    80    79    2
    26   111   109   ar
    27    13    14    1
    28    81    82    1
    29    81    83    1
    30    81    78    1
    31   112   110   ar
    32    79    78    1
    33    77    78    1
    34    69    68    2
    35   109   108   ar
    36   110   108   ar
    37   108   107    1
    38    51    49   ar
    39    51    52   ar
    40    68    67    1
    41    53    52    1
    42    49    47   ar
    43    52    50   ar
    44     4     3    2
    45   103   104    1
    46    66    67    1
    47    47    46    1
    48    47    48   ar
    49   104   107    1
    50   104   105    1
    51    70    67    1
    52    70    71    1
    53    50    48   ar
    54    46    43    1
    55     3     2    1
    56    73    71   ar
    57    73    75   ar
    58    71    72   ar
    59    25    23   ar
    60    25    26   ar
    61   105   106    2
    62   105   114   am
    63    43    42    1
    64    43    44    1
    65    23    21   ar
    66     2     1    1
    67     2     5    1
    68    75    76   ar
    69   114   115    1
    70    26    24   ar
    71    58    55    1
    72    58    59    1
    73    72    74   ar
    74    40    39    1
    75    44    45    2
    76    55    54    1
    77    55    56    1
    78     5     6    1
    79     8     6    1
    80    21    20    1
    81    21    22   ar
    82    39    41    1
    83    39    36    1
    84    76    74   ar
    85   115   116    1
    86   115   118    1
    87   116   117    2
    88    20    17    1
    89    56    57    2
    90    24    22   ar
    91     6     7    1
    92    59    61   ar
    93    59    60   ar
    94    38    37    2
    95    61    63   ar
    96   121   123   ar
    97   121   119   ar
    98   123   124   ar
    99    37    36    1
   100    17    16    1
   101    17    18    1
   102    36    35    1
   103    60    62   ar
   104   118   119    1
   105   119   120   ar
   106   124   122   ar
   107   120   122   ar
   108    63    64   ar
   109    34    33    1
   110    33    32    1
   111    62    64   ar
   112    18    19    2
   113    64    65    1
   114    32    31    1
   115    31    28    1
   116    28    27    1
   117    28    29    1
   118    29    30    2
