@<TRIPOS>MOLECULE
tmp/3a22B03.pdb
 127 121 0 0 0
SMALL
GASTEIGER

@<TRIPOS>ATOM
      1  N         27.6540   40.1610  -21.5620 N.3    17  TRP17      -0.1241
      2  CA        27.3860   41.0040  -20.4100 C.3    17  TRP17       0.1605
      3  C         27.1790   40.2950  -19.0660 C.2    17  TRP17       0.2264
      4  O         27.8270   40.6590  -18.0820 O.2    17  TRP17      -0.2867
      5  CB        26.2080   41.9520  -20.6690 C.3    17  TRP17       0.0550
      6  CG        26.0140   42.9290  -19.5230 C.ar   17  TRP17       0.0003
      7  CD1       24.9900   42.9350  -18.6120 C.ar   17  TRP17       0.0946
      8  CD2       26.8770   44.0220  -19.1620 C.ar   17  TRP17       0.0152
      9  NE1       25.1580   43.9600  -17.7110 N.ar   17  TRP17      -0.2442
     10  CE2       26.3060   44.6440  -18.0180 C.ar   17  TRP17       0.0810
     11  CE3       28.0760   44.5330  -19.6860 C.ar   17  TRP17       0.0012
     12  CZ2       26.8920   45.7670  -17.3910 C.ar   17  TRP17       0.0191
     13  CZ3       28.6590   45.6480  -19.0670 C.ar   17  TRP17       0.0001
     14  CH2       28.0590   46.2510  -17.9250 C.ar   17  TRP17       0.0015
     15  N         29.2310   42.5440  -26.0670 N.3    52  ASP52      -0.1225
     16  CA        28.4840   43.6210  -25.3830 C.3    52  ASP52       0.1805
     17  C         29.4090   44.7710  -24.9450 C.2    52  ASP52       0.2597
     18  O         30.4740   44.9610  -25.5350 O.2    52  ASP52      -0.2718
     19  CB        27.6690   43.0120  -24.2280 C.3    52  ASP52       0.1424
     20  CG        26.4120   43.8050  -23.8980 C.2    52  ASP52       0.3668
     21  OD1       26.5190   44.8290  -23.1910 O.co2  52  ASP52      -0.2456
     22  OD2       25.3110   43.3900  -24.3260 O.co2  52  ASP52      -0.2456
     23  N         28.9950   45.5610  -23.9490 N.am   53  GLU53      -0.1979
     24  CA        29.7800   46.7020  -23.4830 C.3    53  GLU53       0.1602
     25  C         31.2000   46.2880  -23.0650 C.2    53  GLU53       0.2287
     26  O         31.4090   45.1770  -22.5230 O.2    53  GLU53      -0.2864
     27  CB        29.0510   47.4140  -22.3270 C.3    53  GLU53       0.0415
     28  CG        29.8690   48.5140  -21.6150 C.3    53  GLU53       0.1163
     29  CD        29.2430   48.9440  -20.2970 C.2    53  GLU53       0.3649
     30  OE1       27.9900   49.0550  -20.2230 O.co2  53  GLU53      -0.2457
     31  OE2       30.0050   49.1930  -19.3360 O.co2  53  GLU53      -0.2457
     32  N         28.0150   46.2320  -30.1580 N.3    94  TYR94      -0.1241
     33  CA        27.2710   47.0260  -29.1670 C.3    94  TYR94       0.1605
     34  C         27.7140   48.4950  -29.1840 C.2    94  TYR94       0.2264
     35  O         28.9150   48.7900  -29.1950 O.2    94  TYR94      -0.2867
     36  CB        27.5260   46.4470  -27.7660 C.3    94  TYR94       0.0534
     37  CG        27.0560   47.2990  -26.6050 C.ar   94  TYR94      -0.0201
     38  CD1       25.7410   47.1930  -26.1260 C.ar   94  TYR94      -0.0009
     39  CD2       27.9130   48.2150  -25.9910 C.ar   94  TYR94      -0.0009
     40  CE1       25.2940   47.9660  -25.0480 C.ar   94  TYR94       0.0417
     41  CE2       27.4710   49.0150  -24.9220 C.ar   94  TYR94       0.0417
     42  CZ        26.1630   48.8630  -24.4440 C.ar   94  TYR94       0.1957
     43  OH        25.7010   49.6280  -23.3960 O.3    94  TYR94      -0.2866
     44  N         27.0540   53.4860  -21.9830 N.3   102  CYS102     -0.1235
     45  CA        26.8980   53.0070  -20.6140 C.3   102  CYS102      0.1677
     46  C         28.2600   52.7710  -19.9660 C.2   102  CYS102      0.2270
     47  O         28.3980   52.8530  -18.7350 O.2   102  CYS102     -0.2867
     48  CB        26.0340   51.7430  -20.6070 C.3   102  CYS102      0.0956
     49  SG        24.3600   52.0450  -21.2190 S.3   102  CYS102     -0.0801
     50  N         23.4790   45.7880  -31.0030 N.3   138  LYS138     -0.1245
     51  CA        22.6580   46.1550  -29.8450 C.3   138  LYS138      0.1561
     52  C         22.9210   47.6320  -29.5800 C.2   138  LYS138      0.2260
     53  O         24.0730   48.0150  -29.3850 O.2   138  LYS138     -0.2867
     54  CB        23.0760   45.3340  -28.6170 C.3   138  LYS138      0.0271
     55  CG        22.3230   45.6720  -27.3070 C.3   138  LYS138      0.0035
     56  CD        22.6210   44.6010  -26.2470 C.3   138  LYS138      0.0206
     57  CE        22.2160   45.0520  -24.8490 C.3   138  LYS138      0.1093
     58  NZ        22.5490   43.9860  -23.8390 N.3   138  LYS138     -0.1314
     59  N         22.2210   50.7440  -27.1520 N.3   140  ASP140     -0.1239
     60  CA        21.8040   51.1060  -25.7990 C.3   140  ASP140      0.1674
     61  C         21.4130   52.5910  -25.7180 C.2   140  ASP140      0.2266
     62  O         21.5010   53.3380  -26.7100 O.2   140  ASP140     -0.2867
     63  CB        22.9240   50.7880  -24.8000 C.3   140  ASP140      0.1410
     64  CG        22.4010   50.2920  -23.4340 C.2   140  ASP140      0.3668
     65  OD1       21.2740   50.6740  -22.9850 O.co2 140  ASP140     -0.2456
     66  OD2       23.1560   49.5350  -22.7890 O.co2 140  ASP140     -0.2456
     67  N         22.0390   54.8330  -22.7140 N.3   142  CYS142     -0.1235
     68  CA        22.5820   55.6610  -21.6150 C.3   142  CYS142      0.1677
     69  C         22.7350   57.1320  -22.0190 C.2   142  CYS142      0.2270
     70  O         22.3880   58.0520  -21.2510 O.2   142  CYS142     -0.2867
     71  CB        23.9020   55.0760  -21.1010 C.3   142  CYS142      0.0956
     72  SG        23.6520   53.6050  -20.0940 S.3   142  CYS142     -0.0801
     73  N         17.8440   48.6100  -27.2300 N.3   178  CYS178     -0.1235
     74  CA        18.0510   48.4130  -25.7860 C.3   178  CYS178      0.1677
     75  C         17.8140   49.7250  -25.0300 C.2   178  CYS178      0.2270
     76  O         18.7510   50.4800  -24.7710 O.2   178  CYS178     -0.2867
     77  CB        19.4570   47.8620  -25.4980 C.3   178  CYS178      0.0956
     78  SG        19.7860   47.5260  -23.7520 S.3   178  CYS178     -0.0801
     79  N         15.3420   49.7740  -22.2980 N.3   180  TRP180     -0.1241
     80  CA        14.9120   49.4040  -20.9340 C.3   180  TRP180      0.1605
     81  C         13.4200   49.5860  -20.6350 C.2   180  TRP180      0.2264
     82  O         13.0260   49.6660  -19.4600 O.2   180  TRP180     -0.2867
     83  CB        15.7450   50.1500  -19.8590 C.3   180  TRP180      0.0550
     84  CG        17.1730   50.5230  -20.2820 C.ar  180  TRP180      0.0003
     85  CD1       18.0800   49.7230  -20.9340 C.ar  180  TRP180      0.0946
     86  CD2       17.8490   51.7720  -20.0390 C.ar  180  TRP180      0.0152
     87  NE1       19.2580   50.3960  -21.1240 N.ar  180  TRP180     -0.2442
     88  CE2       19.1530   51.6520  -20.5860 C.ar  180  TRP180      0.0810
     89  CE3       17.4770   52.9780  -19.4210 C.ar  180  TRP180      0.0012
     90  CZ2       20.0960   52.6870  -20.5260 C.ar  180  TRP180      0.0191
     91  CZ3       18.4310   54.0280  -19.3620 C.ar  180  TRP180      0.0001
     92  CH2       19.7160   53.8670  -19.9180 C.ar  180  TRP180      0.0015
     93  N         14.1650   45.7730  -25.7940 N.3   197  ARG197     -0.1245
     94  CA        14.1340   45.5280  -24.3650 C.3   197  ARG197      0.1563
     95  C         12.9260   46.2150  -23.7280 C.2   197  ARG197      0.2260
     96  O         12.6180   47.3640  -24.0300 O.2   197  ARG197     -0.2867
     97  CB        15.4400   46.0020  -23.7190 C.3   197  ARG197      0.0307
     98  CG        16.6440   45.0640  -23.9790 C.3   197  ARG197      0.0489
     99  CD        16.6950   43.9500  -22.8990 C.3   197  ARG197      0.2205
    100  NE        16.7020   44.5500  -21.5600 N.pl3 197  ARG197     -0.0865
    101  CZ        17.7640   45.1370  -21.0080 C.cat 197  ARG197      0.5346
    102  NH1       18.9230   45.1490  -21.6490 N.pl3 197  ARG197      0.1354
    103  NH2       17.6670   45.7130  -19.8080 N.pl3 197  ARG197      0.1354
    104  N         17.6100   45.8640  -16.4010 N.3   201  ASP201     -0.1239
    105  CA        18.4260   44.6590  -16.5570 C.3   201  ASP201      0.1674
    106  C         17.9980   43.5150  -15.6360 C.2   201  ASP201      0.2266
    107  O         17.6840   43.7440  -14.4770 O.2   201  ASP201     -0.2867
    108  CB        19.9010   44.9840  -16.3010 C.3   201  ASP201      0.1410
    109  CG        20.4430   46.0710  -17.2250 C.2   201  ASP201      0.3668
    110  OD1       19.6860   46.6150  -18.0560 O.co2 201  ASP201     -0.2456
    111  OD2       21.6430   46.3700  -17.1120 O.co2 201  ASP201     -0.2456
    112  N         15.1680   40.1440  -21.8000 N.3   236  ASP236     -0.1225
    113  CA        16.6100   40.3470  -21.5140 C.3   236  ASP236      0.1805
    114  C         17.3730   39.0280  -21.6260 C.2   236  ASP236      0.2597
    115  O         16.7710   37.9550  -21.8180 O.2   236  ASP236     -0.2718
    116  CB        16.8730   41.0410  -20.1500 C.3   236  ASP236      0.1424
    117  CG        18.2270   41.7800  -20.0930 C.2   236  ASP236      0.3668
    118  OD1       19.0230   41.6880  -21.0620 O.co2 236  ASP236     -0.2456
    119  OD2       18.5110   42.4730  -19.0670 O.co2 236  ASP236     -0.2456
    120  N         18.6910   39.1260  -21.4910 N.am  237  MET237     -0.1979
    121  CA        19.6070   38.0010  -21.7020 C.3   237  MET237      0.1605
    122  C         19.4150   36.9410  -20.6150 C.2   237  MET237      0.2287
    123  O         19.1360   37.2850  -19.4630 O.2   237  MET237     -0.2864
    124  CB        21.0590   38.5060  -21.7020 C.3   237  MET237      0.0413
    125  CG        21.3760   39.4420  -22.8760 C.3   237  MET237      0.0598
    126  SD        22.8980   40.3770  -22.6880 S.3   237  MET237     -0.1393
    127  CE        22.4990   41.4090  -21.2610 C.3   237  MET237      0.0692
@<TRIPOS>BOND
     1    50    51    1
     2    32    33    1
     3    51    52    1
     4    51    54    1
     5    52    53    2
     6    35    34    2
     7    34    33    1
     8    33    36    1
     9    54    55    1
    10    36    37    1
    11    55    56    1
    12    73    74    1
    13    59    60    1
    14    62    61    2
    15    37    38   ar
    16    37    39   ar
    17    56    57    1
    18    38    40   ar
    19    15    16    1
    20    39    41   ar
    21    60    61    1
    22    60    63    1
    23    93    94    1
    24    74    77    1
    25    74    75    1
    26    18    17    2
    27    77    78    1
    28    16    17    1
    29    16    19    1
    30    40    42   ar
    31    75    76    2
    32    17    23   am
    33    41    42   ar
    34    57    58    1
    35    63    64    1
    36    42    43    1
    37    94    95    1
    38    94    97    1
    39    22    20   ar
    40    19    20    1
    41    96    95    2
    42    98    97    1
    43    98    99    1
    44    23    24    1
    45    20    21   ar
    46    24    25    1
    47    24    27    1
    48    64    65   ar
    49    64    66   ar
    50    25    26    2
    51    99   100    1
    52   125   126    1
    53   125   124    1
    54    67    68    1
    55   126   127    1
    56    27    28    1
    57    79    80    1
    58    69    68    1
    59    69    70    2
    60    44    45    1
    61   115   114    2
    62   112   113    1
    63   121   124    1
    64   121   120    1
    65   121   122    1
    66   102   101    1
    67   114   113    1
    68   114   120   am
    69    28    29    1
    70    68    71    1
    71     1     2    1
    72   100   101    2
    73   113   116    1
    74    49    48    1
    75    49    72    1
    76    87    85   ar
    77    87    88   ar
    78    71    72    1
    79   118   117   ar
    80   101   103    1
    81    85    84   ar
    82    80    81    1
    83    80    83    1
    84     5     2    1
    85     5     6    1
    86    81    82    2
    87   122   123    2
    88    45    48    1
    89    45    46    1
    90    88    90   ar
    91    88    86   ar
    92    90    92   ar
    93     2     3    1
    94    29    30   ar
    95    29    31   ar
    96    84    86   ar
    97    84    83    1
    98   116   117    1
    99   117   119   ar
   100    86    89   ar
   101    46    47    2
   102    92    91   ar
   103    11     8   ar
   104    11    13   ar
   105     6     8   ar
   106     6     7   ar
   107    89    91   ar
   108     8    10   ar
   109    13    14   ar
   110     3     4    2
   111     7     9   ar
   112   110   109   ar
   113    10     9   ar
   114    10    12   ar
   115    14    12   ar
   116   109   111   ar
   117   109   108    1
   118   105   104    1
   119   105   108    1
   120   105   106    1
   121   106   107    2
