@<TRIPOS>MOLECULE
tmp/3a22B04.pdb
 95 92 0 0 0
SMALL
GASTEIGER

@<TRIPOS>ATOM
      1  N         -9.3230   53.0240  -32.5470 N.3   433  GLY433     -0.1210
      2  CA        -8.4950   54.2230  -32.3580 C.3   433  GLY433      0.1956
      3  C         -7.2960   53.9750  -31.4550 C.2   433  GLY433      0.2612
      4  O         -6.7870   54.9020  -30.8240 O.2   433  GLY433     -0.2717
      5  N         -6.8440   52.7250  -31.3880 N.am  434  GLN434     -0.1965
      6  CA        -5.6840   52.3650  -30.5610 C.3   434  GLN434      0.1733
      7  C         -4.3970   52.8170  -31.2310 C.2   434  GLN434      0.2617
      8  O         -4.4120   53.2160  -32.3800 O.2   434  GLN434     -0.2715
      9  CB        -5.6160   50.8540  -30.3400 C.3   434  GLN434      0.0408
     10  CG        -6.7920   50.2670  -29.5770 C.3   434  GLN434      0.0908
     11  CD        -6.8480   48.7500  -29.6760 C.2   434  GLN434      0.2608
     12  OE1       -5.8080   48.0670  -29.6580 O.2   434  GLN434     -0.2717
     13  NE2       -8.0590   48.2070  -29.7670 N.am  434  GLN434     -0.0878
     14  N         -3.2860   52.7390  -30.5050 N.am  435  THR435     -0.1951
     15  CA        -1.9780   52.9920  -31.0900 C.3   435  THR435      0.1897
     16  C         -1.7350   51.9660  -32.2040 C.2   435  THR435      0.2313
     17  O         -2.0030   50.7620  -32.0310 O.2   435  THR435     -0.2863
     18  CB        -0.8610   52.8580  -30.0300 C.3   435  THR435      0.1794
     19  OG1       -1.2030   53.6420  -28.8780 O.3   435  THR435     -0.2208
     20  CG2        0.4670   53.3430  -30.5970 C.3   435  THR435      0.0378
     21  N         -8.7900   54.1320  -18.4640 N.3   499  ASP499     -0.1239
     22  CA        -7.6930   54.0550  -19.4300 C.3   499  ASP499      0.1674
     23  C         -6.3800   54.3270  -18.7000 C.2   499  ASP499      0.2266
     24  O         -6.3160   55.2020  -17.8420 O.2   499  ASP499     -0.2867
     25  CB        -7.9290   55.1280  -20.5200 C.3   499  ASP499      0.1410
     26  CG        -6.8450   55.1640  -21.5930 C.2   499  ASP499      0.3668
     27  OD1       -5.7760   55.7850  -21.3710 O.co2 499  ASP499     -0.2456
     28  OD2       -7.0840   54.6240  -22.6970 O.co2 499  ASP499     -0.2456
     29  N         -2.7370   55.7340  -19.5320 N.3   501  TYR501     -0.1227
     30  CA        -2.1400   56.4990  -20.6370 C.3   501  TYR501      0.1736
     31  C         -1.0820   55.7390  -21.4760 C.2   501  TYR501      0.2595
     32  O         -0.1160   55.2030  -20.9380 O.2   501  TYR501     -0.2718
     33  CB        -1.5820   57.8370  -20.1300 C.3   501  TYR501      0.0548
     34  CG        -1.1030   58.7750  -21.2230 C.ar  501  TYR501     -0.0200
     35  CD1       -2.0170   59.4810  -22.0030 C.ar  501  TYR501     -0.0009
     36  CD2        0.2550   58.9690  -21.4620 C.ar  501  TYR501     -0.0009
     37  CE1       -1.6050   60.3420  -22.9850 C.ar  501  TYR501      0.0417
     38  CE2        0.6860   59.8410  -22.4660 C.ar  501  TYR501      0.0417
     39  CZ        -0.2610   60.5280  -23.2150 C.ar  501  TYR501      0.1957
     40  OH         0.1170   61.3950  -24.2130 O.3   501  TYR501     -0.2866
     41  N         -1.3020   55.6770  -22.7900 N.am  502  ASN502     -0.1960
     42  CA        -0.2620   55.2470  -23.7540 C.3   502  ASN502      0.1819
     43  C          0.3180   53.8510  -23.4570 C.2   502  ASN502      0.2621
     44  O          1.4930   53.5810  -23.7280 O.2   502  ASN502     -0.2715
     45  CB         0.8320   56.3370  -23.7900 C.3   502  ASN502      0.1195
     46  CG         1.7680   56.2220  -24.9790 C.2   502  ASN502      0.2630
     47  OD1        2.9780   56.4060  -24.8350 O.2   502  ASN502     -0.2716
     48  ND2        1.2230   55.9540  -26.1470 N.am  502  ASN502     -0.0877
     49  N         -0.5030   52.9690  -22.8830 N.am  503  ASN503     -0.1972
     50  CA        -0.0770   51.5940  -22.5640 C.3   503  ASN503      0.1688
     51  C          1.1050   51.5170  -21.5770 C.2   503  ASN503      0.2292
     52  O          1.9660   50.6250  -21.6530 O.2   503  ASN503     -0.2864
     53  CB         0.2410   50.8160  -23.8500 C.3   503  ASN503      0.1181
     54  CG        -0.9480   50.7640  -24.8090 C.2   503  ASN503      0.2629
     55  OD1       -2.0080   50.2290  -24.4720 O.2   503  ASN503     -0.2716
     56  ND2       -0.7720   51.3240  -26.0040 N.am  503  ASN503     -0.0877
     57  N        -10.5060   58.1690  -21.2670 N.3   514  TRP514     -0.1241
     58  CA       -10.0820   58.2970  -22.6670 C.3   514  TRP514      0.1605
     59  C        -11.1320   57.7290  -23.6180 C.2   514  TRP514      0.2264
     60  O        -11.8490   56.7950  -23.2730 O.2   514  TRP514     -0.2867
     61  CB        -8.7400   57.6040  -22.9120 C.3   514  TRP514      0.0550
     62  CG        -7.9460   58.2680  -23.9810 C.ar  514  TRP514      0.0003
     63  CD1       -7.9820   58.0040  -25.3200 C.ar  514  TRP514      0.0946
     64  CD2       -7.0300   59.3550  -23.8090 C.ar  514  TRP514      0.0152
     65  NE1       -7.1200   58.8390  -25.9880 N.ar  514  TRP514     -0.2442
     66  CE2       -6.5310   59.6840  -25.0830 C.ar  514  TRP514      0.0810
     67  CE3       -6.5680   60.0700  -22.6960 C.ar  514  TRP514      0.0012
     68  CZ2       -5.5950   60.7060  -25.2780 C.ar  514  TRP514      0.0191
     69  CZ3       -5.6430   61.0740  -22.8870 C.ar  514  TRP514      0.0001
     70  CH2       -5.1660   61.3840  -24.1740 C.ar  514  TRP514      0.0015
     71  N        -11.4290   52.6050  -27.0760 N.3   517  ASN517     -0.1240
     72  CA       -10.7840   52.0100  -28.2540 C.3   517  ASN517      0.1653
     73  C        -10.5360   50.4990  -28.1350 C.2   517  ASN517      0.2266
     74  O        -10.1780   49.8400  -29.1190 O.2   517  ASN517     -0.2867
     75  CB        -9.5020   52.7830  -28.6330 C.3   517  ASN517      0.1155
     76  CG        -8.4530   52.7770  -27.5240 C.2   517  ASN517      0.2627
     77  OD1       -8.1550   51.7310  -26.9340 O.2   517  ASN517     -0.2716
     78  ND2       -7.8780   53.9440  -27.2490 N.am  517  ASN517     -0.0877
     79  N         -4.7830   48.5770  -22.6120 N.3   521  ASN521     -0.1225
     80  CA        -4.7990   49.5540  -21.5240 C.3   521  ASN521      0.1785
     81  C         -6.2140   50.0160  -21.1430 C.2   521  ASN521      0.2597
     82  O         -6.3560   50.9900  -20.3930 O.2   521  ASN521     -0.2718
     83  CB        -3.9580   50.8020  -21.9050 C.3   521  ASN521      0.1169
     84  CG        -4.5480   51.5760  -23.0750 C.2   521  ASN521      0.2627
     85  OD1       -5.2360   51.0000  -23.9330 O.2   521  ASN521     -0.2716
     86  ND2       -4.2660   52.8930  -23.1340 N.am  521  ASN521     -0.0877
     87  N         -7.2370   49.3470  -21.6780 N.am  522  GLN522     -0.1979
     88  CA        -8.6430   49.6590  -21.3830 C.3   522  GLN522      0.1601
     89  C         -9.4620   48.4210  -21.0180 C.2   522  GLN522      0.2287
     90  O        -10.6610   48.5300  -20.7400 O.2   522  GLN522     -0.2864
     91  CB        -9.3160   50.3520  -22.5810 C.3   522  GLN522      0.0394
     92  CG        -8.7940   51.7860  -22.8820 C.3   522  GLN522      0.0908
     93  CD        -9.6250   52.5070  -23.9390 C.2   522  GLN522      0.2608
     94  OE1      -10.4910   51.9060  -24.5960 O.2   522  GLN522     -0.2717
     95  NE2       -9.3470   53.7960  -24.1260 N.am  522  GLN522     -0.0878
@<TRIPOS>BOND
     1     1     2    1
     2     8     7    2
     3     2     3    1
     4    16    17    2
     5    16    15    1
     6     3     5   am
     7     3     4    2
     8     5     6    1
     9     7     6    1
    10     7    14   am
    11    15    14    1
    12    15    18    1
    13    20    18    1
    14     6     9    1
    15     9    10    1
    16    18    19    1
    17    13    11   am
    18    11    12    2
    19    11    10    1
    20    74    73    2
    21    75    72    1
    22    75    76    1
    23    72    73    1
    24    72    71    1
    25    76    78   am
    26    76    77    2
    27    48    46   am
    28    56    54   am
    29    65    63   ar
    30    65    66   ar
    31    63    62   ar
    32    68    66   ar
    33    68    70   ar
    34    66    64   ar
    35    46    47    2
    36    46    45    1
    37    54    55    2
    38    54    53    1
    39    94    93    2
    40    40    39    1
    41    70    69   ar
    42    95    93   am
    43    62    64   ar
    44    62    61    1
    45    93    92    1
    46    85    84    2
    47    53    50    1
    48    64    67   ar
    49    45    42    1
    50    42    43    1
    51    42    41    1
    52    44    43    2
    53    59    60    2
    54    59    58    1
    55    43    49   am
    56    39    37   ar
    57    39    38   ar
    58    86    84   am
    59    84    83    1
    60    37    35   ar
    61    61    58    1
    62    69    67   ar
    63    49    50    1
    64    92    91    1
    65    41    31   am
    66    28    26   ar
    67    58    57    1
    68    79    80    1
    69    91    88    1
    70    50    51    1
    71    38    36   ar
    72    35    34   ar
    73    83    80    1
    74    87    88    1
    75    87    81   am
    76    52    51    2
    77    26    27   ar
    78    26    25    1
    79    80    81    1
    80    31    32    2
    81    31    30    1
    82    36    34   ar
    83    88    89    1
    84    34    33    1
    85    81    82    2
    86    89    90    2
    87    30    33    1
    88    30    29    1
    89    25    22    1
    90    22    23    1
    91    22    21    1
    92    23    24    2
