@<TRIPOS>MOLECULE
tmp/3a23A01.pdb
 139 133 0 0 0
SMALL
GASTEIGER

@<TRIPOS>ATOM
      1  N        -19.2360   54.4140   17.5400 N.3    19  TRP19      -0.1241
      2  CA       -18.9890   54.3410   16.1020 C.3    19  TRP19       0.1605
      3  C        -18.7800   52.9280   15.5210 C.2    19  TRP19       0.2264
      4  O        -19.4590   52.5440   14.5680 O.2    19  TRP19      -0.2867
      5  CB       -17.8120   55.2430   15.6880 C.3    19  TRP19       0.0550
      6  CG       -17.6390   55.2110   14.2120 C.ar   19  TRP19       0.0003
      7  CD1      -16.6220   54.6180   13.5120 C.ar   19  TRP19       0.0946
      8  CD2      -18.5540   55.7230   13.2370 C.ar   19  TRP19       0.0152
      9  NE1      -16.8360   54.7560   12.1610 N.ar   19  TRP19      -0.2442
     10  CE2      -18.0190   55.4240   11.9650 C.ar   19  TRP19       0.0810
     11  CE3      -19.7750   56.4110   13.3150 C.ar   19  TRP19       0.0012
     12  CZ2      -18.6560   55.8090   10.7730 C.ar   19  TRP19       0.0191
     13  CZ3      -20.4050   56.7920   12.1390 C.ar   19  TRP19       0.0001
     14  CH2      -19.8460   56.4820   10.8780 C.ar   19  TRP19       0.0015
     15  N        -20.6730   59.2080   19.2400 N.3    54  ASP54      -0.1225
     16  CA       -19.9380   59.5710   18.0420 C.3    54  ASP54       0.1805
     17  C        -20.9210   60.1350   16.9980 C.2    54  ASP54       0.2597
     18  O        -21.9800   60.6720   17.3560 O.2    54  ASP54      -0.2718
     19  CB       -19.1670   58.3400   17.5270 C.3    54  ASP54       0.1424
     20  CG       -17.9220   58.7120   16.7040 C.2    54  ASP54       0.3668
     21  OD1      -18.0590   58.9580   15.4890 O.co2  54  ASP54      -0.2456
     22  OD2      -16.8040   58.7260   17.2680 O.co2  54  ASP54      -0.2456
     23  N        -20.5790   60.0180   15.7190 N.am   55  GLU55      -0.1979
     24  CA       -21.3770   60.6140   14.6330 C.3    55  GLU55       0.1602
     25  C        -22.7900   60.0460   14.5900 C.2    55  GLU55       0.2287
     26  O        -22.9880   58.8430   14.7810 O.2    55  GLU55      -0.2864
     27  CB       -20.6800   60.3420   13.3010 C.3    55  GLU55       0.0415
     28  CG       -21.2340   61.0550   12.0810 C.3    55  GLU55       0.1163
     29  CD       -20.8330   60.3310   10.7910 C.2    55  GLU55       0.3649
     30  OE1      -19.6090   60.1040   10.5480 O.co2  55  GLU55      -0.2457
     31  OE2      -21.7590   59.9640   10.0480 O.co2  55  GLU55      -0.2457
     32  N        -19.4950   64.6260   19.8160 N.3    96  TYR96      -0.1241
     33  CA       -18.7670   64.5390   18.5600 C.3    96  TYR96       0.1605
     34  C        -19.1910   65.6770   17.6350 C.2    96  TYR96       0.2264
     35  O        -20.3910   65.9480   17.4680 O.2    96  TYR96      -0.2867
     36  CB       -19.0760   63.1780   17.9060 C.3    96  TYR96       0.0534
     37  CG       -18.5820   63.0370   16.4840 C.ar   96  TYR96      -0.0201
     38  CD1      -17.3010   62.5530   16.2190 C.ar   96  TYR96      -0.0009
     39  CD2      -19.3920   63.4100   15.3980 C.ar   96  TYR96      -0.0009
     40  CE1      -16.8400   62.4180   14.9070 C.ar   96  TYR96       0.0417
     41  CE2      -18.9360   63.2930   14.0820 C.ar   96  TYR96       0.0417
     42  CZ       -17.6640   62.8000   13.8500 C.ar   96  TYR96       0.1957
     43  OH       -17.2080   62.6830   12.5650 O.3    96  TYR96      -0.2866
     44  N        -18.5690   64.7300    8.9790 N.3   104  CYS104     -0.1235
     45  CA       -18.4580   63.4610    8.2670 C.3   104  CYS104      0.1677
     46  C        -19.8200   62.8960    7.8930 C.2   104  CYS104      0.2270
     47  O        -19.9330   62.1670    6.9020 O.2   104  CYS104     -0.2867
     48  CB       -17.6280   62.4540    9.0520 C.3   104  CYS104      0.0956
     49  SG       -15.9560   63.0520    9.3890 S.3   104  CYS104     -0.0801
     50  N        -19.3950   61.9870    4.1490 N.3   108  TYR108     -0.1241
     51  CA       -19.3510   60.5270    4.0000 C.3   108  TYR108      0.1605
     52  C        -20.5290   59.8570    4.7260 C.2   108  TYR108      0.2264
     53  O        -20.3290   59.1730    5.7360 O.2   108  TYR108     -0.2867
     54  CB       -18.0280   59.9680    4.5420 C.3   108  TYR108      0.0534
     55  CG       -16.7860   60.5980    3.9500 C.ar  108  TYR108     -0.0201
     56  CD1      -16.3250   60.2260    2.6850 C.ar  108  TYR108     -0.0009
     57  CD2      -16.0740   61.5640    4.6490 C.ar  108  TYR108     -0.0009
     58  CE1      -15.1810   60.7990    2.1350 C.ar  108  TYR108      0.0417
     59  CE2      -14.9330   62.1500    4.1160 C.ar  108  TYR108      0.0417
     60  CZ       -14.4840   61.7640    2.8590 C.ar  108  TYR108      0.1957
     61  OH       -13.3410   62.3340    2.3280 O.3   108  TYR108     -0.2866
     62  N        -14.9550   64.8320   20.7670 N.3   140  LYS140     -0.1245
     63  CA       -14.1370   64.3700   19.6500 C.3   140  LYS140      0.1561
     64  C        -14.4090   65.3030   18.4780 C.2   140  LYS140      0.2260
     65  O        -15.5660   65.4750   18.0690 O.2   140  LYS140     -0.2867
     66  CB       -14.5250   62.9290   19.2940 C.3   140  LYS140      0.0271
     67  CG       -13.7830   62.3150   18.0930 C.3   140  LYS140      0.0035
     68  CD       -14.2080   60.8560   17.9210 C.3   140  LYS140      0.0206
     69  CE       -13.7210   60.2820   16.5950 C.3   140  LYS140      0.1093
     70  NZ       -14.1420   58.8480   16.4140 N.3   140  LYS140     -0.1314
     71  N        -13.7480   66.0650   14.6750 N.3   142  ASP142     -0.1239
     72  CA       -13.3240   65.4330   13.4370 C.3   142  ASP142      0.1674
     73  C        -12.8870   66.4610   12.3800 C.2   142  ASP142      0.2266
     74  O        -12.9240   67.6790   12.6260 O.2   142  ASP142     -0.2867
     75  CB       -14.4540   64.5560   12.9020 C.3   142  ASP142      0.1410
     76  CG       -13.9540   63.2850   12.2210 C.2   142  ASP142      0.3668
     77  OD1      -12.8790   63.2940   11.5770 O.co2 142  ASP142     -0.2456
     78  OD2      -14.6680   62.2650   12.3150 O.co2 142  ASP142     -0.2456
     79  N        -13.5450   66.0910    8.6630 N.3   144  CYS144     -0.1235
     80  CA       -14.1250   65.9720    7.3070 C.3   144  CYS144      0.1677
     81  C        -14.2970   67.3290    6.6230 C.2   144  CYS144      0.2270
     82  O        -13.9630   67.4830    5.4320 O.2   144  CYS144     -0.2867
     83  CB       -15.4460   65.2000    7.3150 C.3   144  CYS144      0.0956
     84  SG       -15.1930   63.4300    7.5500 S.3   144  CYS144     -0.0801
     85  N         -9.3430   64.5390   16.0640 N.3   180  CYS180     -0.1235
     86  CA        -9.5650   63.4300   15.1290 C.3   180  CYS180      0.1677
     87  C         -9.3160   63.9120   13.7030 C.2   180  CYS180      0.2270
     88  O        -10.2420   64.3200   12.9990 O.2   180  CYS180     -0.2867
     89  CB       -10.9890   62.8610   15.2840 C.3   180  CYS180      0.0956
     90  SG       -11.2880   61.4440   14.2270 S.3   180  CYS180     -0.0801
     91  N         -6.7930   62.1250   11.6950 N.3   182  TRP182     -0.1241
     92  CA        -6.4070   60.9440   10.8940 C.3   182  TRP182      0.1605
     93  C         -4.9260   60.9030   10.5220 C.2   182  TRP182      0.2264
     94  O         -4.5350   60.2110    9.5580 O.2   182  TRP182     -0.2867
     95  CB        -7.2370   60.8340    9.5920 C.3   182  TRP182      0.0550
     96  CG        -8.6410   61.3850    9.6520 C.ar  182  TRP182      0.0003
     97  CD1       -9.5690   61.1980   10.6510 C.ar  182  TRP182      0.0946
     98  CD2       -9.2780   62.1980    8.6600 C.ar  182  TRP182      0.0152
     99  NE1      -10.7340   61.8590   10.3410 N.ar  182  TRP182     -0.2442
    100  CE2      -10.5850   62.4820    9.1260 C.ar  182  TRP182      0.0810
    101  CE3       -8.8610   62.7350    7.4300 C.ar  182  TRP182      0.0012
    102  CZ2      -11.4920   63.2620    8.3960 C.ar  182  TRP182      0.0191
    103  CZ3       -9.7670   63.5200    6.6970 C.ar  182  TRP182      0.0001
    104  CH2      -11.0670   63.7660    7.1810 C.ar  182  TRP182      0.0015
    105  N         -5.6500   61.5240   16.8230 N.3   199  ARG199     -0.1245
    106  CA        -5.6310   60.3860   15.9170 C.3   199  ARG199      0.1563
    107  C         -4.4090   60.4480   14.9960 C.2   199  ARG199      0.2260
    108  O         -4.0910   61.5060   14.4330 O.2   199  ARG199     -0.2867
    109  CB        -6.9390   60.3370   15.1160 C.3   199  ARG199      0.0307
    110  CG        -8.1430   59.8280   15.9320 C.3   199  ARG199      0.0489
    111  CD        -8.2520   58.2850   15.8940 C.3   199  ARG199      0.2205
    112  NE        -8.2140   57.8360   14.5050 N.pl3 199  ARG199     -0.0865
    113  CZ        -9.2570   57.8300   13.6780 C.cat 199  ARG199      0.5346
    114  NH1      -10.4610   58.2050   14.1030 N.pl3 199  ARG199      0.1354
    115  NH2       -9.0890   57.4450   12.4160 N.pl3 199  ARG199      0.1354
    116  N         -9.1210   55.3480    9.7460 N.3   203  ASP203     -0.1239
    117  CA        -9.9350   54.5210   10.6550 C.3   203  ASP203      0.1674
    118  C         -9.4930   53.0620   10.7140 C.2   203  ASP203      0.2266
    119  O         -9.1670   52.4660    9.7020 O.2   203  ASP203     -0.2867
    120  CB       -11.4080   54.5610   10.2340 C.3   203  ASP203      0.1410
    121  CG       -11.9910   55.9710   10.2420 C.2   203  ASP203      0.3668
    122  OD1      -11.2760   56.9350   10.6290 O.co2 203  ASP203     -0.2456
    123  OD2      -13.1830   56.0970    9.8830 O.co2 203  ASP203     -0.2456
    124  N         -6.7070   54.7470   17.4420 N.3   238  ASP238     -0.1225
    125  CA        -8.1520   54.5960   17.1510 C.3   238  ASP238      0.1805
    126  C         -8.8440   53.6380   18.1250 C.2   238  ASP238      0.2597
    127  O         -8.1850   52.9670   18.9560 O.2   238  ASP238     -0.2718
    128  CB        -8.4360   54.2370   15.6700 C.3   238  ASP238      0.1424
    129  CG        -9.7950   54.7560   15.1720 C.2   238  ASP238      0.3668
    130  OD1      -10.5770   55.3500   15.9620 O.co2 238  ASP238     -0.2456
    131  OD2      -10.0870   54.5500   13.9740 O.co2 238  ASP238     -0.2456
    132  N        -10.1730   53.6140   18.0240 N.am  239  MET239     -0.1979
    133  CA       -11.0640   52.8840   18.9180 C.3   239  MET239      0.1605
    134  C        -10.8870   51.3720   18.7880 C.2   239  MET239      0.2287
    135  O        -10.6270   50.8600   17.6990 O.2   239  MET239     -0.2864
    136  CB       -12.5200   53.2680   18.6160 C.3   239  MET239      0.0413
    137  CG       -12.8400   54.7530   18.9040 C.3   239  MET239      0.0598
    138  SD       -14.3610   55.3630   18.1400 S.3   239  MET239     -0.1393
    139  CE       -14.0770   55.0990   16.3960 C.3   239  MET239      0.0692
@<TRIPOS>BOND
     1    58    56   ar
     2    58    60   ar
     3    61    60    1
     4    56    55   ar
     5    60    59   ar
     6    55    54    1
     7    55    57   ar
     8    51    50    1
     9    51    54    1
    10    51    52    1
    11    59    57   ar
    12    52    53    2
    13    82    81    2
    14    81    80    1
    15   103   104   ar
    16   103   101   ar
    17    47    46    2
    18   104   102   ar
    19    80    83    1
    20    80    79    1
    21    83    84    1
    22   101    98   ar
    23    84    49    1
    24    46    45    1
    25    45    44    1
    26    45    48    1
    27   102   100   ar
    28    98   100   ar
    29    98    96   ar
    30    48    49    1
    31   100    99   ar
    32    94    93    2
    33    95    96    1
    34    95    92    1
    35    96    97   ar
    36   119   118    2
    37   116   117    1
    38   123   121   ar
    39    31    29   ar
    40   120   121    1
    41   120   117    1
    42   121   122   ar
    43    99    97   ar
    44    93    92    1
    45    30    29   ar
    46   117   118    1
    47    12    14   ar
    48    12    10   ar
    49    29    28    1
    50    14    13   ar
    51    92    91    1
    52    77    76   ar
    53    10     9   ar
    54    10     8   ar
    55    28    27    1
    56    13    11   ar
    57     9     7   ar
    58    76    78   ar
    59    76    75    1
    60    73    74    2
    61    73    72    1
    62   115   113    1
    63    43    42    1
    64    75    72    1
    65    88    87    2
    66     8    11   ar
    67     8     6   ar
    68    27    24    1
    69    72    71    1
    70     7     6   ar
    71   113   114    1
    72   113   112    2
    73    87    86    1
    74    42    41   ar
    75    42    40   ar
    76   131   129   ar
    77    41    39   ar
    78     6     5    1
    79    90    89    1
    80   108   107    2
    81   112   111    1
    82     4     3    2
    83    25    24    1
    84    25    26    2
    85    24    23    1
    86    40    38   ar
    87   107   106    1
    88   109   106    1
    89   109   110    1
    90    86    89    1
    91    86    85    1
    92   129   128    1
    93   129   130   ar
    94    39    37   ar
    95    21    20   ar
    96     3     2    1
    97   128   125    1
    98     5     2    1
    99    23    17   am
   100   111   110    1
   101   106   105    1
   102     2     1    1
   103    38    37   ar
   104   139   138    1
   105    70    69    1
   106    37    36    1
   107    69    68    1
   108    20    22   ar
   109    20    19    1
   110    17    18    2
   111    17    16    1
   112   125   124    1
   113   125   126    1
   114    35    34    2
   115    19    16    1
   116    34    33    1
   117   135   134    2
   118    36    33    1
   119    68    67    1
   120   132   126   am
   121   132   133    1
   122    16    15    1
   123    65    64    2
   124    67    66    1
   125   126   127    2
   126   138   137    1
   127    64    63    1
   128    33    32    1
   129   136   137    1
   130   136   133    1
   131   134   133    1
   132    66    63    1
   133    63    62    1
