@<TRIPOS>MOLECULE
tmp/3a23A00.pdb
 71 67 0 0 0
SMALL
GASTEIGER

@<TRIPOS>ATOM
      1  N         23.3460   53.2650   33.3460 N.3   390  ALA390     -0.1231
      2  CA        23.8660   54.4940   33.9500 C.3   390  ALA390      0.1694
      3  C         23.2590   55.7120   33.2550 C.2   390  ALA390      0.2593
      4  O         23.1950   55.7670   32.0350 O.2   390  ALA390     -0.2718
      5  CB        25.4010   54.5250   33.8720 C.3   390  ALA390      0.0304
      6  N         22.7700   56.6720   34.0280 N.am  391  GLY391     -0.1942
      7  CA        22.2030   57.8810   33.4140 C.3   391  GLY391      0.2014
      8  C         23.2180   58.9990   33.4600 C.2   391  GLY391      0.2639
      9  O         24.1850   58.9170   34.2110 O.2   391  GLY391     -0.2714
     10  N         23.0340   60.0250   32.6440 N.am  392  GLY392     -0.1939
     11  CA        23.7580   61.2790   32.8530 C.3   392  GLY392      0.2014
     12  C         22.8530   62.1770   33.6810 C.2   392  GLY392      0.2639
     13  O         21.6280   62.0640   33.5790 O.2   392  GLY392     -0.2714
     14  N         23.4420   63.0230   34.5270 N.am  393  ALA393     -0.1963
     15  CA        22.6980   64.0680   35.2450 C.3   393  ALA393      0.1728
     16  C         23.2520   65.4270   34.8590 C.2   393  ALA393      0.2616
     17  O         24.4740   65.5940   34.7350 O.2   393  ALA393     -0.2715
     18  CB        22.7640   63.8700   36.7640 C.3   393  ALA393      0.0334
     19  N         22.3670   66.3970   34.6400 N.am  394  TYR394     -0.1974
     20  CA        22.7940   67.7190   34.1720 C.3   394  TYR394      0.1639
     21  C         22.1440   68.8450   34.9520 C.2   394  TYR394      0.2290
     22  O         20.9710   68.7660   35.2980 O.2   394  TYR394     -0.2864
     23  CB        22.4790   67.8960   32.6840 C.3   394  TYR394      0.0560
     24  CG        23.1160   66.8440   31.8180 C.ar  394  TYR394     -0.0198
     25  CD1       22.4970   65.6060   31.6230 C.ar  394  TYR394     -0.0009
     26  CD2       24.3500   67.0730   31.2050 C.ar  394  TYR394     -0.0009
     27  CE1       23.0980   64.6200   30.8410 C.ar  394  TYR394      0.0417
     28  CE2       24.9530   66.0890   30.4190 C.ar  394  TYR394      0.0417
     29  CZ        24.3200   64.8810   30.2380 C.ar  394  TYR394      0.1957
     30  OH        24.9130   63.9130   29.4650 O.3   394  TYR394     -0.2866
     31  N         25.5130   70.3240   26.5690 N.3   404  GLY404     -0.1225
     32  CA        26.5040   69.2600   26.6840 C.3   404  GLY404      0.1811
     33  C         25.8820   67.9020   26.9580 C.2   404  GLY404      0.2280
     34  O         26.5350   67.0150   27.5150 O.2   404  GLY404     -0.2866
     35  N         24.7800   64.2240   26.5740 N.3   406  THR406     -0.1203
     36  CA        25.6060   63.2170   25.9050 C.3   406  THR406      0.1994
     37  C         24.8490   61.9320   25.6180 C.2   406  THR406      0.2618
     38  O         24.0560   61.4640   26.4500 O.2   406  THR406     -0.2717
     39  CB        26.8700   62.9240   26.7460 C.3   406  THR406      0.1784
     40  OG1       27.6410   64.1200   26.8220 O.3   406  THR406     -0.2211
     41  CG2       27.7310   61.7990   26.1360 C.3   406  THR406      0.0376
     42  N         25.0820   61.3790   24.4270 N.am  407  ALA407     -0.1965
     43  CA        24.5340   60.0760   24.0600 C.3   407  ALA407      0.1728
     44  C         25.6200   59.2180   23.4270 C.2   407  ALA407      0.2616
     45  O         26.3680   59.6980   22.5760 O.2   407  ALA407     -0.2715
     46  CB        23.3350   60.2370   23.1130 C.3   407  ALA407      0.0334
     47  N         25.7140   57.9570   23.8550 N.am  408  ALA408     -0.1977
     48  CA        26.6950   57.0140   23.2930 C.3   408  ALA408      0.1597
     49  C         26.3590   56.6680   21.8450 C.2   408  ALA408      0.2287
     50  O         27.2360   56.3090   21.0540 O.2   408  ALA408     -0.2864
     51  CB        26.7650   55.7370   24.1360 C.3   408  ALA408      0.0319
     52  N         28.1810   64.8670   22.5610 N.3   463  SER463     -0.1217
     53  CA        27.9030   65.6990   23.7350 C.3   463  SER463      0.1889
     54  C         27.4470   67.0970   23.3460 C.2   463  SER463      0.2288
     55  O         27.6280   68.0400   24.1120 O.2   463  SER463     -0.2866
     56  CB        29.1820   65.8590   24.5660 C.3   463  SER463      0.2089
     57  OG        29.6390   64.6340   25.0750 O.3   463  SER463     -0.2183
     58  N         19.2420   61.7250   32.1350 N.3   480  VAL480     -0.1245
     59  CA        19.1310   61.2010   30.7690 C.3   480  VAL480      0.1561
     60  C         19.6160   59.7470   30.7030 C.2   480  VAL480      0.2260
     61  O         20.7760   59.4660   31.0250 O.2   480  VAL480     -0.2867
     62  CB        19.9510   62.0640   29.7700 C.3   480  VAL480      0.0252
     63  CG1       19.7310   61.6080   28.3180 C.3   480  VAL480      0.0019
     64  CG2       19.5920   63.5630   29.9170 C.3   480  VAL480      0.0019
     65  N         19.6300   56.1970   28.0110 N.3   482  PRO482     -0.2116
     66  CA        19.3460   55.7040   26.6570 C.3   482  PRO482      0.1372
     67  C         18.4880   54.4480   26.6300 C.2   482  PRO482      0.2244
     68  O         18.4590   53.6880   27.6000 O.2   482  PRO482     -0.2868
     69  CB        20.7390   55.3750   26.1040 C.3   482  PRO482      0.0268
     70  CG        21.5220   54.9770   27.3110 C.3   482  PRO482      0.0207
     71  CD        21.0170   55.8950   28.4200 C.3   482  PRO482      0.0892
@<TRIPOS>BOND
     1    50    49    2
     2    49    48    1
     3    52    53    1
     4    45    44    2
     5    46    43    1
     6    48    47    1
     7    48    51    1
     8    54    53    1
     9    54    55    2
    10    44    47   am
    11    44    43    1
    12    53    56    1
    13    43    42    1
    14    42    37   am
    15    56    57    1
    16    37    36    1
    17    37    38    2
    18    36    35    1
    19    36    39    1
    20    69    66    1
    21    69    70    1
    22    41    39    1
    23    31    32    1
    24    67    66    1
    25    67    68    2
    26    66    65    1
    27    32    33    1
    28    39    40    1
    29    33    34    2
    30    70    71    1
    31    65    71    1
    32    63    62    1
    33    30    29    1
    34    62    64    1
    35    62    59    1
    36    29    28   ar
    37    29    27   ar
    38    28    26   ar
    39    60    59    1
    40    60    61    2
    41    59    58    1
    42    27    25   ar
    43    26    24   ar
    44    25    24   ar
    45    24    23    1
    46     4     3    2
    47    10    11    1
    48    10     8   am
    49    23    20    1
    50    11    12    1
    51     3     2    1
    52     3     6   am
    53     1     2    1
    54     7     8    1
    55     7     6    1
    56     8     9    2
    57    13    12    2
    58    12    14   am
    59     5     2    1
    60    20    19    1
    61    20    21    1
    62    14    15    1
    63    19    16   am
    64    17    16    2
    65    16    15    1
    66    21    22    2
    67    15    18    1
