@<TRIPOS>MOLECULE
tmp/3a23B02.pdb
 77 71 0 0 0
SMALL
GASTEIGER

@<TRIPOS>ATOM
      1  N         34.6470   28.8520  -28.4860 N.3    34  ASP34      -0.1225
      2  CA        35.0810   27.4460  -28.4880 C.3    34  ASP34       0.1805
      3  C         34.1610   26.5770  -27.6190 C.2    34  ASP34       0.2597
      4  O         33.7650   25.4810  -28.0320 O.2    34  ASP34      -0.2718
      5  CB        36.5530   27.3090  -28.0830 C.3    34  ASP34       0.1424
      6  CG        37.5110   27.9330  -29.1060 C.2    34  ASP34       0.3668
      7  OD1       37.1100   28.1360  -30.2770 O.co2  34  ASP34      -0.2456
      8  OD2       38.6800   28.2070  -28.7380 O.co2  34  ASP34      -0.2456
      9  N         33.7940   27.0890  -26.4400 N.am   35  ALA35      -0.1979
     10  CA        32.9090   26.3790  -25.5120 C.3    35  ALA35       0.1597
     11  C         31.4800   26.2090  -26.0510 C.2    35  ALA35       0.2287
     12  O         30.8710   25.1510  -25.8800 O.2    35  ALA35      -0.2864
     13  CB        32.8900   27.0840  -24.1600 C.3    35  ALA35       0.0319
     14  N         31.7370   23.4940  -28.6280 N.3    38  ALA38      -0.1231
     15  CA        31.9710   22.2200  -27.9360 C.3    38  ALA38       0.1694
     16  C         30.7160   21.7100  -27.2210 C.2    38  ALA38       0.2591
     17  O         30.5090   20.4970  -27.0970 O.2    38  ALA38      -0.2718
     18  CB        33.1370   22.3500  -26.9550 C.3    38  ALA38       0.0304
     19  N         29.8780   22.6430  -26.7650 N.am   39  ALA39      -0.1980
     20  CA        28.6400   22.3160  -26.0520 C.3    39  ALA39       0.1597
     21  C         27.5090   21.8460  -26.9740 C.2    39  ALA39       0.2287
     22  O         26.4710   21.3840  -26.4940 O.2    39  ALA39      -0.2864
     23  CB        28.1740   23.5160  -25.2170 C.3    39  ALA39       0.0319
     24  N         30.3050   29.7930  -20.5720 N.3   270  LEU270     -0.1231
     25  CA        30.1820   28.5420  -21.3150 C.3   270  LEU270      0.1693
     26  C         31.3420   27.5690  -21.0570 C.2   270  LEU270      0.2592
     27  O         31.1770   26.3530  -21.1980 O.2   270  LEU270     -0.2718
     28  CB        30.0350   28.8240  -22.8090 C.3   270  LEU270      0.0284
     29  CG        28.8300   29.6810  -23.2240 C.3   270  LEU270      0.0019
     30  CD1       28.8180   29.8560  -24.7460 C.3   270  LEU270      0.0001
     31  CD2       27.5230   29.0530  -22.7420 C.3   270  LEU270      0.0001
     32  N         32.4950   28.1070  -20.6670 N.am  271  THR271     -0.1953
     33  CA        33.6870   27.2880  -20.4260 C.3   271  THR271      0.1897
     34  C         33.5590   26.4320  -19.1590 C.2   271  THR271      0.2313
     35  O         34.2340   25.4160  -19.0300 O.2   271  THR271     -0.2863
     36  CB        34.9900   28.1310  -20.3560 C.3   271  THR271      0.1794
     37  OG1       34.9750   28.9650  -19.1890 O.3   271  THR271     -0.2208
     38  CG2       35.1640   28.9910  -21.6110 C.3   271  THR271      0.0378
     39  N         30.3360   25.6050  -18.0120 N.3   273  MET273     -0.1230
     40  CA        28.9670   25.1140  -18.0580 C.3   273  MET273      0.1702
     41  C         28.9510   23.5860  -17.9440 C.2   273  MET273      0.2593
     42  O         29.7640   22.9090  -18.5720 O.2   273  MET273     -0.2718
     43  CB        28.3090   25.5410  -19.3730 C.3   273  MET273      0.0401
     44  CG        26.8920   25.0080  -19.5460 C.3   273  MET273      0.0596
     45  SD        26.0730   25.6420  -21.0050 S.3   273  MET273     -0.1393
     46  CE        27.2190   25.2130  -22.2950 C.3   273  MET273      0.0692
     47  N         28.0320   23.0510  -17.1460 N.am  274  THR274     -0.1939
     48  CA        27.9000   21.6010  -17.0030 C.3   274  THR274      0.2028
     49  C         27.0670   21.0390  -18.1560 C.2   274  THR274      0.2642
     50  O         26.3400   21.7790  -18.8370 O.2   274  THR274     -0.2714
     51  CB        27.1960   21.2240  -15.6860 C.3   274  THR274      0.1808
     52  OG1       25.8800   21.8000  -15.6540 O.3   274  THR274     -0.2208
     53  CG2       28.0000   21.6920  -14.4610 C.3   274  THR274      0.0379
     54  N         27.1610   19.7260  -18.3670 N.am  275  SER275     -0.1949
     55  CA        26.2870   19.0420  -19.3300 C.3   275  SER275      0.1924
     56  C         24.8090   19.1730  -18.9410 C.2   275  SER275      0.2314
     57  O         23.9440   19.3180  -19.8130 O.2   275  SER275     -0.2863
     58  CB        26.6790   17.5580  -19.4450 C.3   275  SER275      0.2116
     59  OG        25.8900   16.8820  -20.4190 O.3   275  SER275     -0.2180
     60  N         23.7490   22.5900  -20.1210 N.3   278  ALA278     -0.1231
     61  CA        23.7070   22.5690  -21.5760 C.3   278  ALA278      0.1694
     62  C         22.4410   21.8720  -22.0930 C.2   278  ALA278      0.2592
     63  O         21.7930   22.3710  -23.0170 O.2   278  ALA278     -0.2718
     64  CB        24.9640   21.9310  -22.1470 C.3   278  ALA278      0.0304
     65  N         22.0720   20.7500  -21.4740 N.am  279  GLY279     -0.1957
     66  CA        20.8500   20.0320  -21.8540 C.3   279  GLY279      0.1869
     67  C         19.5970   20.8870  -21.6860 C.2   279  GLY279      0.2309
     68  O         18.6450   20.7910  -22.4750 O.2   279  GLY279     -0.2863
     69  N         19.4350   23.3640  -24.4280 N.3   282  LYS282     -0.1245
     70  CA        19.2630   22.7260  -25.7370 C.3   282  LYS282      0.1561
     71  C         17.9790   21.9200  -25.9510 C.2   282  LYS282      0.2260
     72  O         17.8100   21.3400  -27.0260 O.2   282  LYS282     -0.2867
     73  CB        20.4720   21.8510  -26.0900 C.3   282  LYS282      0.0271
     74  CG        21.7970   22.5970  -26.1690 C.3   282  LYS282      0.0035
     75  CD        22.8990   21.7460  -26.8100 C.3   282  LYS282      0.0206
     76  CE        23.1080   20.4020  -26.1190 C.3   282  LYS282      0.1093
     77  NZ        24.2930   19.6490  -26.6590 N.3   282  LYS282     -0.1314
@<TRIPOS>BOND
     1     7     6   ar
     2     6     8   ar
     3     6     5    1
     4    14    15    1
     5     2     1    1
     6     2     5    1
     7     2     3    1
     8     4     3    2
     9    15    16    1
    10    15    18    1
    11     3     9   am
    12    16    17    2
    13    16    19   am
    14    72    71    2
    15    21    22    2
    16    21    20    1
    17    75    74    1
    18    75    76    1
    19    19    20    1
    20    77    76    1
    21     9    10    1
    22    74    73    1
    23    73    70    1
    24    20    23    1
    25    11    12    2
    26    11    10    1
    27    71    70    1
    28    70    69    1
    29    10    13    1
    30    30    29    1
    31    29    28    1
    32    29    31    1
    33    63    62    2
    34    28    25    1
    35    68    67    2
    36    46    45    1
    37    64    61    1
    38    62    61    1
    39    62    65   am
    40    66    67    1
    41    66    65    1
    42    38    36    1
    43    61    60    1
    44    25    26    1
    45    25    24    1
    46    27    26    2
    47    26    32   am
    48    45    44    1
    49    32    33    1
    50    33    36    1
    51    33    34    1
    52    59    58    1
    53    36    37    1
    54    57    56    2
    55    44    43    1
    56    58    55    1
    57    43    40    1
    58    55    56    1
    59    55    54    1
    60    34    35    2
    61    50    49    2
    62    42    41    2
    63    54    49   am
    64    49    48    1
    65    40    39    1
    66    40    41    1
    67    41    47   am
    68    47    48    1
    69    48    51    1
    70    51    52    1
    71    51    53    1
