@<TRIPOS>MOLECULE
tmp/3a25A00.pdb
 206 200 0 0 0
SMALL
GASTEIGER

@<TRIPOS>ATOM
      1  N         -0.1900  -22.0430  -41.8180 N.3    92  ILE92      -0.1231
      2  CA        -1.0160  -22.6760  -40.8060 C.3    92  ILE92       0.1692
      3  C         -2.4550  -22.6980  -41.2740 C.2    92  ILE92       0.2592
      4  O         -2.9980  -21.6610  -41.6510 O.2    92  ILE92      -0.2718
      5  CB        -0.9560  -21.8680  -39.5210 C.3    92  ILE92       0.0266
      6  CG1        0.4390  -21.9850  -38.9000 C.3    92  ILE92       0.0019
      7  CG2       -2.0730  -22.2840  -38.5820 C.3    92  ILE92       0.0020
      8  CD1        0.7120  -20.9680  -37.8090 C.3    92  ILE92       0.0001
      9  N         -3.0770  -23.8700  -41.2590 N.am   93  MET93      -0.1965
     10  CA        -4.4540  -23.9740  -41.7260 C.3    93  MET93       0.1736
     11  C         -5.4260  -23.3990  -40.7040 C.2    93  MET93       0.2616
     12  O         -5.2130  -23.4890  -39.4990 O.2    93  MET93      -0.2715
     13  CB        -4.8160  -25.4210  -42.0810 C.3    93  MET93       0.0427
     14  CG        -4.4500  -26.4410  -41.0060 C.3    93  MET93       0.0599
     15  SD        -4.6940  -28.1520  -41.5540 S.3    93  MET93      -0.1393
     16  CE        -6.2270  -27.9920  -42.4830 C.3    93  MET93       0.0692
     17  N         -6.4900  -22.7950  -41.2080 N.am   94  PHE94      -0.1960
     18  CA        -7.5240  -22.2130  -40.3720 C.3    94  PHE94       0.1771
     19  C         -8.6770  -21.8400  -41.2880 C.2    94  PHE94       0.2620
     20  O         -8.6070  -20.8440  -42.0050 O.2    94  PHE94      -0.2715
     21  CB        -7.0050  -20.9660  -39.6570 C.3    94  PHE94       0.0574
     22  CG        -8.0160  -20.3280  -38.7550 C.ar   94  PHE94      -0.0200
     23  CD1       -7.9350  -20.4860  -37.3780 C.ar   94  PHE94      -0.0042
     24  CD2       -9.0540  -19.5720  -39.2790 C.ar   94  PHE94      -0.0042
     25  CE1       -8.8690  -19.9000  -36.5390 C.ar   94  PHE94      -0.0003
     26  CE2       -9.9990  -18.9840  -38.4450 C.ar   94  PHE94      -0.0003
     27  CZ        -9.9080  -19.1510  -37.0740 C.ar   94  PHE94      -0.0000
     28  N         -9.7350  -22.6370  -41.2800 N.am   95  SER95      -0.1950
     29  CA       -10.8620  -22.3750  -42.1700 C.3    95  SER95       0.1924
     30  C        -12.0970  -22.0000  -41.3710 C.2    95  SER95       0.2314
     31  O        -12.4800  -22.7440  -40.4660 O.2    95  SER95      -0.2863
     32  CB       -11.1510  -23.6120  -43.0150 C.3    95  SER95       0.2116
     33  OG       -10.9630  -24.7920  -42.2420 O.3    95  SER95      -0.2180
     34  N        -15.0620  -24.1470  -40.5970 N.3    98  ASN98      -0.1240
     35  CA       -15.0540  -24.9560  -39.3760 C.3    98  ASN98       0.1653
     36  C        -15.5030  -24.1450  -38.1650 C.2    98  ASN98       0.2266
     37  O        -15.3630  -24.6020  -37.0240 O.2    98  ASN98      -0.2867
     38  CB       -13.6480  -25.4910  -39.0800 C.3    98  ASN98       0.1155
     39  CG       -13.3380  -26.7980  -39.7980 C.2    98  ASN98       0.2627
     40  OD1      -13.9620  -27.1390  -40.8040 O.2    98  ASN98      -0.2716
     41  ND2      -12.3520  -27.5360  -39.2810 N.am   98  ASN98      -0.0877
     42  N        -15.8050  -24.3530  -33.6450 N.3   102  ARG102     -0.1245
     43  CA       -15.1320  -23.4650  -32.7100 C.3   102  ARG102      0.1563
     44  C        -16.1470  -22.7550  -31.8150 C.2   102  ARG102      0.2260
     45  O        -15.8500  -22.4300  -30.6620 O.2   102  ARG102     -0.2867
     46  CB       -14.2470  -22.4560  -33.4460 C.3   102  ARG102      0.0307
     47  CG       -13.0210  -23.0780  -34.0970 C.3   102  ARG102      0.0489
     48  CD       -12.0340  -22.0210  -34.6090 C.3   102  ARG102      0.2205
     49  NE       -12.4860  -21.3800  -35.8440 N.pl3 102  ARG102     -0.0865
     50  CZ       -12.2500  -21.8520  -37.0640 C.cat 102  ARG102      0.5346
     51  NH1      -11.5520  -22.9700  -37.2260 N.pl3 102  ARG102      0.1354
     52  NH2      -12.6980  -21.1970  -38.1260 N.pl3 102  ARG102      0.1354
     53  N         -4.6820  -32.1630  -27.6120 N.3   118  MET118     -0.1230
     54  CA        -3.5780  -32.9880  -28.0730 C.3   118  MET118      0.1702
     55  C         -2.9650  -32.5230  -29.3780 C.2   118  MET118      0.2592
     56  O         -1.9570  -33.0580  -29.8190 O.2   118  MET118     -0.2718
     57  CB        -4.0520  -34.4260  -28.1880 C.3   118  MET118      0.0401
     58  CG        -4.0460  -35.1490  -26.8440 C.3   118  MET118      0.0596
     59  SD        -4.8050  -36.7790  -26.9710 S.3   118  MET118     -0.1393
     60  CE        -3.6060  -37.6310  -27.9940 C.3   118  MET118      0.0692
     61  N         -3.5680  -31.5110  -29.9820 N.am  119  PHE119     -0.1976
     62  CA        -3.2050  -31.0730  -31.3210 C.3   119  PHE119      0.1639
     63  C         -3.5600  -29.5970  -31.3920 C.2   119  PHE119      0.2290
     64  O         -4.3980  -29.2000  -32.2010 O.2   119  PHE119     -0.2864
     65  CB        -4.0780  -31.8040  -32.3410 C.3   119  PHE119      0.0560
     66  CG        -3.8700  -33.2960  -32.3840 C.ar  119  PHE119     -0.0200
     67  CD1       -2.8980  -33.8500  -33.2080 C.ar  119  PHE119     -0.0042
     68  CD2       -4.6670  -34.1490  -31.6250 C.ar  119  PHE119     -0.0042
     69  CE1       -2.7130  -35.2310  -33.2650 C.ar  119  PHE119     -0.0003
     70  CE2       -4.4860  -35.5350  -31.6750 C.ar  119  PHE119     -0.0003
     71  CZ        -3.5080  -36.0710  -32.4940 C.ar  119  PHE119     -0.0000
     72  N         -2.5480  -26.5410  -32.3570 N.3   121  GLY121     -0.1225
     73  CA        -2.4750  -25.5840  -33.4390 C.3   121  GLY121      0.1811
     74  C         -2.1280  -24.2310  -32.8470 C.2   121  GLY121      0.2280
     75  O         -1.1450  -24.1060  -32.1010 O.2   121  GLY121     -0.2866
     76  N         -6.9420  -23.1880  -31.8650 N.3   124  HIS124     -0.1226
     77  CA        -8.2040  -23.3350  -32.5970 C.3   124  HIS124      0.1752
     78  C         -9.3750  -23.6670  -31.6770 C.2   124  HIS124      0.2595
     79  O        -10.3650  -22.9430  -31.6260 O.2   124  HIS124     -0.2718
     80  CB        -8.0930  -24.4580  -33.6360 C.3   124  HIS124      0.0759
     81  CG        -7.1530  -24.1640  -34.7650 C.ar  124  HIS124      0.0818
     82  ND1       -5.7870  -24.0960  -34.6010 N.ar  124  HIS124     -0.2268
     83  CD2       -7.3860  -23.9540  -36.0840 C.ar  124  HIS124      0.1154
     84  CE1       -5.2180  -23.8430  -35.7690 C.ar  124  HIS124      0.1986
     85  NE2       -6.1660  -23.7580  -36.6850 N.ar  124  HIS124     -0.2212
     86  N         -9.2500  -24.7770  -30.9560 N.am  125  LEU125     -0.1980
     87  CA       -10.3720  -25.3650  -30.2370 C.3   125  LEU125      0.1596
     88  C        -10.2890  -25.0710  -28.7550 C.2   125  LEU125      0.2287
     89  O        -11.2910  -25.0570  -28.0530 O.2   125  LEU125     -0.2864
     90  CB       -10.3870  -26.8730  -30.4670 C.3   125  LEU125      0.0297
     91  CG       -10.7600  -27.2740  -31.8930 C.3   125  LEU125      0.0022
     92  CD1      -10.8170  -28.7870  -32.0470 C.3   125  LEU125      0.0001
     93  CD2      -12.0930  -26.6590  -32.2530 C.3   125  LEU125      0.0001
     94  N         -1.0520  -28.8290  -26.3860 N.3   140  ILE140     -0.1231
     95  CA         0.1470  -29.4490  -26.9240 C.3   140  ILE140      0.1692
     96  C          0.2310  -29.2070  -28.4210 C.2   140  ILE140      0.2592
     97  O         -0.7130  -29.5150  -29.1640 O.2   140  ILE140     -0.2718
     98  CB         0.1620  -30.9820  -26.6590 C.3   140  ILE140      0.0266
     99  CG1        0.0570  -31.2580  -25.1560 C.3   140  ILE140      0.0019
    100  CG2        1.4140  -31.6130  -27.2670 C.3   140  ILE140      0.0020
    101  CD1       -0.7100  -32.5140  -24.8060 C.3   140  ILE140      0.0001
    102  N          1.3640  -28.6680  -28.8600 N.am  141  GLU141     -0.1966
    103  CA         1.5870  -28.4320  -30.2770 C.3   141  GLU141      0.1733
    104  C          2.9890  -28.8670  -30.6560 C.2   141  GLU141      0.2616
    105  O          3.9730  -28.4000  -30.0820 O.2   141  GLU141     -0.2715
    106  CB         1.3310  -26.9630  -30.6530 C.3   141  GLU141      0.0429
    107  CG         1.8440  -26.5630  -32.0360 C.3   141  GLU141      0.1163
    108  CD         1.2730  -27.4070  -33.1720 C.2   141  GLU141      0.3649
    109  OE1        0.0690  -27.7360  -33.1490 O.co2 141  GLU141     -0.2457
    110  OE2        2.0340  -27.7350  -34.1090 O.co2 141  GLU141     -0.2457
    111  N          3.0640  -29.7780  -31.6220 N.am  142  LYS142     -0.1963
    112  CA         4.3310  -30.3360  -32.0760 C.3   142  LYS142      0.1728
    113  C          5.2040  -29.3510  -32.8740 C.2   142  LYS142      0.2616
    114  O          6.4030  -29.2690  -32.6410 O.2   142  LYS142     -0.2715
    115  CB         4.0780  -31.6080  -32.8810 C.3   142  LYS142      0.0311
    116  CG         5.2300  -32.0000  -33.7530 C.3   142  LYS142      0.0038
    117  CD         5.6080  -33.4690  -33.5690 C.3   142  LYS142      0.0206
    118  CE         5.0560  -34.3570  -34.6850 C.3   142  LYS142      0.1093
    119  NZ         5.8900  -35.6090  -34.8340 N.3   142  LYS142     -0.1314
    120  N          4.6090  -28.6000  -33.8030 N.am  143  ASP143     -0.1971
    121  CA         5.3740  -27.6820  -34.6540 C.3   143  ASP143      0.1709
    122  C          5.8050  -26.4380  -33.8930 C.2   143  ASP143      0.2293
    123  O          4.9700  -25.7710  -33.2860 O.2   143  ASP143     -0.2864
    124  CB         4.5630  -27.2620  -35.8700 C.3   143  ASP143      0.1436
    125  CG         5.3630  -26.4020  -36.8280 C.2   143  ASP143      0.3671
    126  OD1        6.4150  -26.8740  -37.3100 O.co2 143  ASP143     -0.2456
    127  OD2        4.9420  -25.2610  -37.1140 O.co2 143  ASP143     -0.2456
    128  N          4.2600  -23.0090  -35.3750 N.3   146  THR146     -0.1218
    129  CA         2.8620  -22.9520  -34.9660 C.3   146  THR146      0.1862
    130  C          2.8020  -22.6230  -33.4920 C.2   146  THR146      0.2287
    131  O          1.9120  -21.9070  -33.0320 O.2   146  THR146     -0.2866
    132  CB         2.1680  -24.3030  -35.1910 C.3   146  THR146      0.1770
    133  OG1        2.1960  -24.6240  -36.5850 O.3   146  THR146     -0.2211
    134  CG2        0.7150  -24.2480  -34.7130 C.3   146  THR146      0.0375
    135  N          5.8000  -30.2120  -27.8770 N.3   168  MET168     -0.1230
    136  CA         6.2590  -31.5920  -27.9730 C.3   168  MET168      0.1702
    137  C          5.2360  -32.3730  -28.7680 C.2   168  MET168      0.2592
    138  O          4.1550  -31.8560  -29.0540 O.2   168  MET168     -0.2718
    139  CB         6.3910  -32.2090  -26.5800 C.3   168  MET168      0.0401
    140  CG         5.1130  -32.1550  -25.7810 C.3   168  MET168      0.0596
    141  SD         5.2960  -32.6940  -24.0650 S.3   168  MET168     -0.1393
    142  CE         6.5020  -31.5160  -23.4560 C.3   168  MET168      0.0692
    143  N          5.5920  -33.6020  -29.1390 N.am  169  ASP169     -0.1960
    144  CA         4.6380  -34.5760  -29.6620 C.3   169  ASP169      0.1840
    145  C          3.7140  -34.9920  -28.5140 C.2   169  ASP169      0.2622
    146  O          4.1720  -35.1720  -27.3890 O.2   169  ASP169     -0.2715
    147  CB         5.3880  -35.7820  -30.2200 C.3   169  ASP169      0.1450
    148  CG         4.4800  -36.7450  -30.9680 C.2   169  ASP169      0.3671
    149  OD1        3.4470  -37.1560  -30.3880 O.co2 169  ASP169     -0.2456
    150  OD2        4.8070  -37.1000  -32.1310 O.co2 169  ASP169     -0.2456
    151  N          2.4130  -35.1170  -28.7700 N.am  170  ASN170     -0.1958
    152  CA         1.4980  -35.4530  -27.6820 C.3   170  ASN170      0.1819
    153  C          1.8050  -36.8260  -27.0330 C.2   170  ASN170      0.2621
    154  O          1.4560  -37.0840  -25.8760 O.2   170  ASN170     -0.2715
    155  CB         0.0260  -35.3060  -28.1000 C.3   170  ASN170      0.1195
    156  CG        -0.3740  -36.2410  -29.2340 C.2   170  ASN170      0.2630
    157  OD1       -0.2700  -37.4620  -29.1200 O.2   170  ASN170     -0.2716
    158  ND2       -0.8690  -35.6660  -30.3280 N.am  170  ASN170     -0.0877
    159  N          2.4920  -37.6880  -27.7680 N.am  171  ARG171     -0.1977
    160  CA         2.8340  -38.9980  -27.2420 C.3   171  ARG171      0.1597
    161  C          3.8370  -38.9520  -26.0920 C.2   171  ARG171      0.2287
    162  O          3.8790  -39.8830  -25.2880 O.2   171  ARG171     -0.2864
    163  CB         3.3780  -39.8780  -28.3490 C.3   171  ARG171      0.0334
    164  CG         2.3780  -40.1610  -29.4450 C.3   171  ARG171      0.0492
    165  CD         3.0970  -39.9260  -30.7260 C.3   171  ARG171      0.2205
    166  NE         2.5200  -40.6070  -31.8630 N.pl3 171  ARG171     -0.0865
    167  CZ         2.9580  -40.4210  -33.1020 C.cat 171  ARG171      0.5346
    168  NH1        3.9540  -39.5700  -33.3220 N.pl3 171  ARG171      0.1354
    169  NH2        2.4030  -41.0740  -34.1160 N.pl3 171  ARG171      0.1354
    170  N         -8.5270  -32.6090  -32.1820 N.3   185  GLY185     -0.1210
    171  CA        -8.7950  -31.9220  -33.4310 C.3   185  GLY185      0.1956
    172  C         -7.7120  -32.1490  -34.4710 C.2   185  GLY185      0.2611
    173  O         -6.8870  -31.2770  -34.7480 O.2   185  GLY185     -0.2717
    174  N         -7.7090  -33.3350  -35.0510 N.am  186  TYR186     -0.1976
    175  CA        -6.7250  -33.7060  -36.0500 C.3   186  TYR186      0.1639
    176  C         -7.4900  -34.6980  -36.8990 C.2   186  TYR186      0.2290
    177  O         -8.4770  -35.2520  -36.4260 O.2   186  TYR186     -0.2864
    178  CB        -5.5270  -34.3460  -35.3530 C.3   186  TYR186      0.0560
    179  CG        -4.3500  -34.7000  -36.2360 C.ar  186  TYR186     -0.0198
    180  CD1       -3.5870  -33.7120  -36.8350 C.ar  186  TYR186     -0.0009
    181  CD2       -3.9790  -36.0220  -36.4280 C.ar  186  TYR186     -0.0009
    182  CE1       -2.4990  -34.0230  -37.6210 C.ar  186  TYR186      0.0417
    183  CE2       -2.8960  -36.3530  -37.2150 C.ar  186  TYR186      0.0417
    184  CZ        -2.1520  -35.3430  -37.8090 C.ar  186  TYR186      0.1957
    185  OH        -1.0600  -35.6580  -38.5930 O.3   186  TYR186     -0.2866
    186  N         -3.8870  -42.2170  -32.2350 N.3   193  PHE193     -0.1241
    187  CA        -3.5830  -41.4640  -31.0240 C.3   193  PHE193      0.1605
    188  C         -4.5700  -41.8080  -29.9300 C.2   193  PHE193      0.2264
    189  O         -4.4380  -41.3520  -28.7900 O.2   193  PHE193     -0.2867
    190  CB        -3.6000  -39.9510  -31.2990 C.3   193  PHE193      0.0534
    191  CG        -2.4650  -39.4890  -32.1470 C.ar  193  PHE193     -0.0203
    192  CD1       -1.2930  -39.0450  -31.5680 C.ar  193  PHE193     -0.0042
    193  CD2       -2.5580  -39.5250  -33.5300 C.ar  193  PHE193     -0.0042
    194  CE1       -0.2360  -38.6330  -32.3520 C.ar  193  PHE193     -0.0003
    195  CE2       -1.5060  -39.1150  -34.3200 C.ar  193  PHE193     -0.0003
    196  CZ        -0.3460  -38.6760  -33.7330 C.ar  193  PHE193     -0.0000
    197  N        -15.5980  -35.2780  -42.5680 N.3   254  HIS254     -0.1241
    198  CA       -14.7630  -34.8840  -41.4510 C.3   254  HIS254      0.1621
    199  C        -15.7930  -34.7870  -40.3500 C.2   254  HIS254      0.2264
    200  O        -16.6820  -33.9340  -40.3990 O.2   254  HIS254     -0.2867
    201  CB       -14.1100  -33.5290  -41.7360 C.3   254  HIS254      0.0745
    202  CG       -13.5040  -32.8570  -40.5370 C.ar  254  HIS254      0.0817
    203  ND1      -14.0140  -32.9820  -39.2640 N.ar  254  HIS254     -0.2268
    204  CD2      -12.4570  -32.0020  -40.4360 C.ar  254  HIS254      0.1154
    205  CE1      -13.2910  -32.2620  -38.4230 C.ar  254  HIS254      0.1986
    206  NE2      -12.3420  -31.6540  -39.1100 N.ar  254  HIS254     -0.2212
@<TRIPOS>BOND
     1    32    33    1
     2    32    29    1
     3   197   198    1
     4    16    15    1
     5    29    30    1
     6    29    28    1
     7    13    10    1
     8    13    14    1
     9    20    19    2
    10     1     2    1
    11   201   198    1
    12   201   202    1
    13    10     9    1
    14    10    11    1
    15     4     3    2
    16    15    14    1
    17   198   199    1
    18    30    31    2
    19    19    28   am
    20    19    18    1
    21     3     9   am
    22     3     2    1
    23    17    11   am
    24    17    18    1
    25     2     5    1
    26    40    39    2
    27    11    12    2
    28    34    35    1
    29   202   204   ar
    30   202   203   ar
    31   204   206   ar
    32   200   199    2
    33    18    21    1
    34    39    41   am
    35    39    38    1
    36    21    22    1
    37     5     6    1
    38     5     7    1
    39    35    38    1
    40    35    36    1
    41    24    22   ar
    42    24    26   ar
    43   203   205   ar
    44   206   205   ar
    45     6     8    1
    46    22    23   ar
    47   185   184    1
    48    26    27   ar
    49    36    37    2
    50    52    50    1
    51   184   182   ar
    52   184   183   ar
    53   182   180   ar
    54    23    25   ar
    55   126   125   ar
    56    51    50    1
    57   183   181   ar
    58   127   125   ar
    59    27    25   ar
    60    50    49    2
    61   176   177    2
    62   176   175    1
    63   180   179   ar
    64   125   124    1
    65    85    83   ar
    66    85    84   ar
    67   133   132    1
    68   181   179   ar
    69   179   178    1
    70    83    81   ar
    71   175   178    1
    72   175   174    1
    73   124   121    1
    74    49    48    1
    75    84    82   ar
    76   128   129    1
    77   132   129    1
    78   132   134    1
    79   174   172   am
    80   129   130    1
    81   119   118    1
    82    81    82   ar
    83    81    80    1
    84   173   172    2
    85   118   117    1
    86   121   122    1
    87   121   120    1
    88    48    47    1
    89   172   171    1
    90   195   196   ar
    91   195   193   ar
    92   169   167    1
    93   110   108   ar
    94    47    46    1
    95   122   123    2
    96   120   113   am
    97   116   117    1
    98   116   115    1
    99   196   194   ar
   100    42    43    1
   101    80    77    1
   102   193   191   ar
   103   130   131    2
   104    46    43    1
   105    73    74    1
   106    73    72    1
   107   171   170    1
   108   168   167    1
   109    69    67   ar
   110    69    71   ar
   111    67    66   ar
   112   108   109   ar
   113   108   107    1
   114   167   166    2
   115   115   112    1
   116   113   114    2
   117   113   112    1
   118    74    75    2
   119    43    44    1
   120    77    76    1
   121    77    78    1
   122    71    70   ar
   123    66    65    1
   124    66    68   ar
   125   194   192   ar
   126    65    62    1
   127    93    91    1
   128   186   187    1
   129    64    63    2
   130   191   192   ar
   131   191   190    1
   132   150   148   ar
   133   112   111    1
   134    92    91    1
   135   107   106    1
   136    91    90    1
   137   166   165    1
   138    44    45    2
   139    78    79    2
   140    78    86   am
   141    70    68   ar
   142   111   104   am
   143    63    62    1
   144    62    61    1
   145   190   187    1
   146   187   188    1
   147   148   149   ar
   148   148   147    1
   149    86    87    1
   150   165   164    1
   151   104   103    1
   152   104   105    2
   153   106   103    1
   154    90    87    1
   155   158   156   am
   156   103   102    1
   157    87    88    1
   158   147   144    1
   159    61    55   am
   160   188   189    2
   161    56    55    2
   162   144   143    1
   163   144   145    1
   164   164   163    1
   165    55    54    1
   166   156   157    2
   167   156   155    1
   168    97    96    2
   169   143   137   am
   170   138   137    2
   171   102    96   am
   172   151   145   am
   173   151   152    1
   174   137   136    1
   175    88    89    2
   176   145   146    2
   177    96    95    1
   178   163   160    1
   179    57    54    1
   180    57    58    1
   181   155   152    1
   182    54    53    1
   183    60    59    1
   184   136   135    1
   185   136   139    1
   186   159   160    1
   187   159   153   am
   188   152   153    1
   189   100    98    1
   190   160   161    1
   191   153   154    2
   192    59    58    1
   193    95    98    1
   194    95    94    1
   195    98    99    1
   196   139   140    1
   197   161   162    2
   198   140   141    1
   199    99   101    1
   200   141   142    1
