@<TRIPOS>MOLECULE
tmp/3a26A00.pdb
 152 147 0 0 0
SMALL
GASTEIGER

@<TRIPOS>ATOM
      1  N         -0.1640  -22.1770  -44.6230 N.3    92  ILE92      -0.1231
      2  CA        -0.9560  -22.8110  -43.5900 C.3    92  ILE92       0.1692
      3  C         -2.3990  -22.8310  -44.0390 C.2    92  ILE92       0.2591
      4  O         -2.9920  -21.7810  -44.3180 O.2    92  ILE92      -0.2718
      5  CB        -0.8360  -22.0560  -42.2560 C.3    92  ILE92       0.0266
      6  CG1        0.5980  -22.1340  -41.7290 C.3    92  ILE92       0.0019
      7  CG2       -1.8470  -22.5770  -41.2530 C.3    92  ILE92       0.0020
      8  CD1        0.8040  -21.4470  -40.3820 C.3    92  ILE92       0.0001
      9  N         -2.9590  -24.0310  -44.1340 N.am   93  MET93      -0.1979
     10  CA        -4.3600  -24.1760  -44.5030 C.3    93  MET93       0.1605
     11  C         -5.2870  -23.5910  -43.4400 C.2    93  MET93       0.2287
     12  O         -5.1000  -23.7830  -42.2360 O.2    93  MET93      -0.2864
     13  CB        -4.7070  -25.6390  -44.7760 C.3    93  MET93       0.0413
     14  CG        -4.4670  -26.0620  -46.2190 C.3    93  MET93       0.0598
     15  SD        -5.7900  -25.4460  -47.2690 S.3    93  MET93      -0.1393
     16  CE        -7.2260  -25.9270  -46.3030 C.3    93  MET93       0.0692
     17  N         -4.5280  -32.5720  -30.4020 N.3   118  MET118     -0.1230
     18  CA        -3.4310  -33.3590  -30.9340 C.3   118  MET118      0.1702
     19  C         -2.8850  -32.8460  -32.2660 C.2   118  MET118      0.2592
     20  O         -1.8060  -33.2610  -32.7010 O.2   118  MET118     -0.2718
     21  CB        -3.8320  -34.8240  -31.0380 C.3   118  MET118      0.0401
     22  CG        -3.9360  -35.5260  -29.6830 C.3   118  MET118      0.0596
     23  SD        -4.5090  -37.2320  -29.8520 S.3   118  MET118     -0.1393
     24  CE        -3.1510  -37.9700  -30.7620 C.3   118  MET118      0.0692
     25  N         -3.6200  -31.9490  -32.9130 N.am  119  PHE119     -0.1976
     26  CA        -3.1730  -31.3850  -34.1830 C.3   119  PHE119      0.1639
     27  C         -3.4840  -29.8930  -34.2030 C.2   119  PHE119      0.2290
     28  O         -4.2380  -29.4150  -35.0560 O.2   119  PHE119     -0.2864
     29  CB        -3.8830  -32.0780  -35.3440 C.3   119  PHE119      0.0560
     30  CG        -3.6660  -33.5620  -35.3910 C.ar  119  PHE119     -0.0200
     31  CD1       -2.6390  -34.1050  -36.1550 C.ar  119  PHE119     -0.0042
     32  CD2       -4.4860  -34.4200  -34.6670 C.ar  119  PHE119     -0.0042
     33  CE1       -2.4350  -35.4860  -36.1960 C.ar  119  PHE119     -0.0003
     34  CE2       -4.2830  -35.7950  -34.7020 C.ar  119  PHE119     -0.0003
     35  CZ        -3.2620  -36.3300  -35.4700 C.ar  119  PHE119     -0.0000
     36  N         -2.3840  -26.9050  -35.0210 N.3   121  GLY121     -0.1225
     37  CA        -2.2620  -25.9200  -36.0780 C.3   121  GLY121      0.1811
     38  C         -1.9850  -24.5510  -35.4610 C.2   121  GLY121      0.2280
     39  O         -1.0730  -24.4080  -34.6380 O.2   121  GLY121     -0.2866
     40  N         -6.8850  -23.5330  -34.5880 N.3   124  HIS124     -0.1241
     41  CA        -8.1590  -23.6090  -35.2940 C.3   124  HIS124      0.1621
     42  C         -9.3010  -23.9980  -34.3620 C.2   124  HIS124      0.2264
     43  O        -10.2910  -23.2870  -34.2450 O.2   124  HIS124     -0.2867
     44  CB        -8.0850  -24.6320  -36.4390 C.3   124  HIS124      0.0745
     45  CG        -6.9880  -24.3760  -37.4240 C.ar  124  HIS124      0.0817
     46  ND1       -5.6540  -24.4060  -37.0770 N.ar  124  HIS124     -0.2268
     47  CD2       -7.0280  -24.1190  -38.7550 C.ar  124  HIS124      0.1154
     48  CE1       -4.9190  -24.1600  -38.1500 C.ar  124  HIS124      0.1986
     49  NE2       -5.7280  -23.9840  -39.1800 N.ar  124  HIS124     -0.2212
     50  N         -0.7910  -29.2090  -29.1010 N.3   140  ILE140     -0.1231
     51  CA         0.4070  -29.7990  -29.6660 C.3   140  ILE140      0.1692
     52  C          0.4490  -29.5800  -31.1690 C.2   140  ILE140      0.2592
     53  O         -0.5140  -29.8820  -31.8890 O.2   140  ILE140     -0.2718
     54  CB         0.4660  -31.3170  -29.3590 C.3   140  ILE140      0.0266
     55  CG1        0.3770  -31.5450  -27.8500 C.3   140  ILE140      0.0019
     56  CG2        1.7270  -31.9420  -29.9480 C.3   140  ILE140      0.0020
     57  CD1       -0.2100  -32.8800  -27.4740 C.3   140  ILE140      0.0001
     58  N          1.5750  -29.0540  -31.6360 N.am  141  GLU141     -0.1966
     59  CA         1.7540  -28.7760  -33.0530 C.3   141  GLU141      0.1733
     60  C          3.1680  -29.1710  -33.4700 C.2   141  GLU141      0.2616
     61  O          4.1600  -28.7200  -32.8820 O.2   141  GLU141     -0.2715
     62  CB         1.4500  -27.2940  -33.3810 C.3   141  GLU141      0.0429
     63  CG         1.9440  -26.8430  -34.7460 C.3   141  GLU141      0.1163
     64  CD         1.3890  -27.6830  -35.8890 C.2   141  GLU141      0.3649
     65  OE1        0.1970  -28.0660  -35.8320 O.co2 141  GLU141     -0.2457
     66  OE2        2.1440  -27.9470  -36.8500 O.co2 141  GLU141     -0.2457
     67  N          3.2510  -30.0270  -34.4810 N.am  142  LYS142     -0.1963
     68  CA         4.5340  -30.5540  -34.9090 C.3   142  LYS142      0.1728
     69  C          5.4170  -29.5170  -35.6290 C.2   142  LYS142      0.2616
     70  O          6.6060  -29.4210  -35.3390 O.2   142  LYS142     -0.2715
     71  CB         4.3510  -31.8180  -35.7560 C.3   142  LYS142      0.0311
     72  CG         5.6310  -32.6200  -35.8800 C.3   142  LYS142      0.0038
     73  CD         5.3900  -34.1070  -36.0920 C.3   142  LYS142      0.0206
     74  CE         5.6070  -34.5110  -37.5460 C.3   142  LYS142      0.1093
     75  NZ         6.1010  -35.9190  -37.6440 N.3   142  LYS142     -0.1314
     76  N          4.8490  -28.7390  -36.5510 N.am  143  ASP143     -0.1971
     77  CA         5.6630  -27.8140  -37.3480 C.3   143  ASP143      0.1709
     78  C          6.0570  -26.5470  -36.5910 C.2   143  ASP143      0.2293
     79  O          5.2000  -25.8150  -36.1050 O.2   143  ASP143     -0.2864
     80  CB         4.9800  -27.4450  -38.6640 C.3   143  ASP143      0.1436
     81  CG         5.7530  -26.3800  -39.4280 C.2   143  ASP143      0.3671
     82  OD1        7.0000  -26.4780  -39.4920 O.co2 143  ASP143     -0.2456
     83  OD2        5.1260  -25.4330  -39.9510 O.co2 143  ASP143     -0.2456
     84  N          4.4430  -23.3510  -38.0130 N.3   146  THR146     -0.1218
     85  CA         3.0560  -23.2990  -37.5700 C.3   146  THR146      0.1862
     86  C          3.0140  -22.9740  -36.0830 C.2   146  THR146      0.2287
     87  O          2.1710  -22.2000  -35.6100 O.2   146  THR146     -0.2866
     88  CB         2.3400  -24.6380  -37.7900 C.3   146  THR146      0.1770
     89  OG1        2.3160  -24.9420  -39.1880 O.3   146  THR146     -0.2211
     90  CG2        0.8940  -24.5790  -37.2440 C.3   146  THR146      0.0375
     91  N          5.8680  -30.4390  -30.8060 N.3   168  MET168     -0.1230
     92  CA         6.3280  -31.8160  -30.9110 C.3   168  MET168      0.1702
     93  C          5.3140  -32.6570  -31.6490 C.2   168  MET168      0.2592
     94  O          4.1860  -32.2160  -31.9020 O.2   168  MET168     -0.2718
     95  CB         6.5400  -32.4140  -29.5210 C.3   168  MET168      0.0401
     96  CG         5.2780  -32.4550  -28.6830 C.3   168  MET168      0.0596
     97  SD         5.4820  -33.4090  -27.1680 S.3   168  MET168     -0.1393
     98  CE         6.5750  -32.3560  -26.2200 C.3   168  MET168      0.0692
     99  N          5.7280  -33.8720  -31.9920 N.am  169  ASP169     -0.1960
    100  CA         4.8180  -34.8730  -32.5180 C.3   169  ASP169      0.1840
    101  C          3.9390  -35.3470  -31.3650 C.2   169  ASP169      0.2622
    102  O          4.4360  -35.6260  -30.2740 O.2   169  ASP169     -0.2715
    103  CB         5.6000  -36.0360  -33.1130 C.3   169  ASP169      0.1450
    104  CG         4.7120  -37.0070  -33.8500 C.2   169  ASP169      0.3671
    105  OD1        3.6710  -37.4060  -33.2770 O.co2 169  ASP169     -0.2456
    106  OD2        5.0440  -37.3640  -35.0040 O.co2 169  ASP169     -0.2456
    107  N          2.6310  -35.4120  -31.5910 N.am  170  ASN170     -0.1958
    108  CA         1.7310  -35.7900  -30.5120 C.3   170  ASN170      0.1819
    109  C          2.0730  -37.1760  -29.9380 C.2   170  ASN170      0.2621
    110  O          1.8330  -37.4520  -28.7620 O.2   170  ASN170     -0.2715
    111  CB         0.2590  -35.6980  -30.9440 C.3   170  ASN170      0.1195
    112  CG        -0.0710  -36.5900  -32.1390 C.2   170  ASN170      0.2630
    113  OD1        0.1120  -37.8070  -32.0940 O.2   170  ASN170     -0.2716
    114  ND2       -0.5870  -35.9810  -33.2090 N.am  170  ASN170     -0.0877
    115  N          2.6510  -38.0370  -30.7660 N.am  171  ARG171     -0.1977
    116  CA         3.0130  -39.3660  -30.3020 C.3   171  ARG171      0.1597
    117  C          3.9800  -39.2990  -29.1200 C.2   171  ARG171      0.2287
    118  O          3.8790  -40.1030  -28.1970 O.2   171  ARG171     -0.2864
    119  CB         3.6120  -40.1980  -31.4290 C.3   171  ARG171      0.0334
    120  CG         2.6670  -40.4760  -32.5780 C.3   171  ARG171      0.0492
    121  CD         3.4520  -40.3730  -33.8690 C.3   171  ARG171      0.2205
    122  NE         2.7900  -41.0090  -34.9970 N.pl3 171  ARG171     -0.0865
    123  CZ         3.1730  -40.8560  -36.2620 C.cat 171  ARG171      0.5346
    124  NH1        4.2110  -40.0770  -36.5500 N.pl3 171  ARG171      0.1354
    125  NH2        2.5140  -41.4770  -37.2400 N.pl3 171  ARG171      0.1354
    126  N         -8.2370  -32.9760  -35.0660 N.3   185  GLY185     -0.1210
    127  CA        -8.4910  -32.2810  -36.3160 C.3   185  GLY185      0.1956
    128  C         -7.3800  -32.5350  -37.3160 C.2   185  GLY185      0.2611
    129  O         -6.4920  -31.7120  -37.5060 O.2   185  GLY185     -0.2717
    130  N         -7.4210  -33.6930  -37.9510 N.am  186  TYR186     -0.1976
    131  CA        -6.4230  -34.0660  -38.9330 C.3   186  TYR186      0.1639
    132  C         -7.1660  -34.9690  -39.8860 C.2   186  TYR186      0.2290
    133  O         -8.1960  -35.5240  -39.5170 O.2   186  TYR186     -0.2864
    134  CB        -5.2760  -34.8040  -38.2530 C.3   186  TYR186      0.0560
    135  CG        -4.0900  -35.0830  -39.1450 C.ar  186  TYR186     -0.0198
    136  CD1       -3.3430  -34.0440  -39.6810 C.ar  186  TYR186     -0.0009
    137  CD2       -3.6970  -36.3920  -39.4260 C.ar  186  TYR186     -0.0009
    138  CE1       -2.2520  -34.2920  -40.4890 C.ar  186  TYR186      0.0417
    139  CE2       -2.6090  -36.6560  -40.2300 C.ar  186  TYR186      0.0417
    140  CZ        -1.8860  -35.5970  -40.7610 C.ar  186  TYR186      0.1957
    141  OH        -0.7900  -35.8370  -41.5620 O.3   186  TYR186     -0.2866
    142  N         -3.6850  -42.5960  -35.2330 N.3   193  PHE193     -0.1241
    143  CA        -3.3850  -41.8250  -34.0220 C.3   193  PHE193      0.1605
    144  C         -4.3730  -42.1760  -32.9110 C.2   193  PHE193      0.2264
    145  O         -4.2820  -41.6690  -31.7830 O.2   193  PHE193     -0.2867
    146  CB        -3.3980  -40.3140  -34.3050 C.3   193  PHE193      0.0534
    147  CG        -2.2650  -39.8500  -35.1690 C.ar  193  PHE193     -0.0203
    148  CD1       -1.1280  -39.2950  -34.6030 C.ar  193  PHE193     -0.0042
    149  CD2       -2.3340  -39.9720  -36.5510 C.ar  193  PHE193     -0.0042
    150  CE1       -0.0680  -38.8610  -35.4010 C.ar  193  PHE193     -0.0003
    151  CE2       -1.2820  -39.5390  -37.3610 C.ar  193  PHE193     -0.0003
    152  CZ        -0.1460  -38.9840  -36.7850 C.ar  193  PHE193     -0.0000
@<TRIPOS>BOND
     1    15    16    1
     2    15    14    1
     3    14    13    1
     4    13    10    1
     5     1     2    1
     6    10     9    1
     7    10    11    1
     8     4     3    2
     9     9     3   am
    10     3     2    1
    11     2     5    1
    12    11    12    2
    13     5     6    1
    14     5     7    1
    15     6     8    1
    16   141   140    1
    17   140   138   ar
    18   140   139   ar
    19   138   136   ar
    20   139   137   ar
    21    83    81   ar
    22   132   133    2
    23   132   131    1
    24   136   135   ar
    25    82    81   ar
    26    81    80    1
    27   137   135   ar
    28    89    88    1
    29    49    47   ar
    30    49    48   ar
    31   135   134    1
    32   131   134    1
    33   131   130    1
    34    47    45   ar
    35    80    77    1
    36    48    46   ar
    37    84    85    1
    38   130   128   am
    39    88    85    1
    40    88    90    1
    41    75    74    1
    42    85    86    1
    43    74    73    1
    44   129   128    2
    45    45    46   ar
    46    45    44    1
    47   151   152   ar
    48   151   149   ar
    49    77    78    1
    50    77    76    1
    51   128   127    1
    52   125   123    1
    53    66    64   ar
    54   152   150   ar
    55    78    79    2
    56    76    69   am
    57   149   147   ar
    58   124   123    1
    59    44    41    1
    60   127   126    1
    61   123   122    2
    62    33    31   ar
    63    33    35   ar
    64    31    30   ar
    65    73    72    1
    66    86    87    2
    67    37    38    1
    68    37    36    1
    69    64    65   ar
    70    64    63    1
    71    72    71    1
    72    71    68    1
    73    69    70    2
    74    69    68    1
    75    35    34   ar
    76    38    39    2
    77   150   148   ar
    78    30    29    1
    79    30    32   ar
    80    29    26    1
    81    41    40    1
    82    41    42    1
    83   142   143    1
    84   147   148   ar
    85   147   146    1
    86    28    27    2
    87   106   104   ar
    88   122   121    1
    89    68    67    1
    90    63    62    1
    91    34    32   ar
    92    67    60   am
    93    42    43    2
    94   146   143    1
    95    27    26    1
    96    26    25    1
    97   143   144    1
    98   121   120    1
    99   104   105   ar
   100   104   103    1
   101    60    59    1
   102    60    61    2
   103    62    59    1
   104   114   112   am
   105   103   100    1
   106    59    58    1
   107    25    19   am
   108   144   145    2
   109    20    19    2
   110   120   119    1
   111   100    99    1
   112   100   101    1
   113    19    18    1
   114   112   113    2
   115   112   111    1
   116    99    93   am
   117    94    93    2
   118    53    52    2
   119    93    92    1
   120    58    52   am
   121   107   101   am
   122   107   108    1
   123   119   116    1
   124   101   102    2
   125    52    51    1
   126    21    18    1
   127    21    22    1
   128   111   108    1
   129    18    17    1
   130    92    91    1
   131    92    95    1
   132   115   116    1
   133   115   109   am
   134    24    23    1
   135   108   109    1
   136   116   117    1
   137    56    54    1
   138   109   110    2
   139    23    22    1
   140    51    54    1
   141    51    50    1
   142    95    96    1
   143    54    55    1
   144   117   118    2
   145    96    97    1
   146    55    57    1
   147    97    98    1
