@<TRIPOS>MOLECULE
tmp/3a27A00.pdb
 177 170 0 0 0
SMALL
GASTEIGER

@<TRIPOS>ATOM
      1  N        -15.8480  -10.2280  -14.0880 N.3    48  MET48      -0.1245
      2  CA       -14.7700   -9.6560  -13.2900 C.3    48  MET48       0.1570
      3  C        -14.0700   -8.5290  -14.0430 C.2    48  MET48       0.2261
      4  O        -13.8710   -8.6020  -15.2550 O.2    48  MET48      -0.2867
      5  CB       -13.7640  -10.7330  -12.8640 C.3    48  MET48       0.0387
      6  CG       -12.4310  -10.7190  -13.6090 C.3    48  MET48       0.0595
      7  SD       -12.4880  -11.3500  -15.2990 S.3    48  MET48      -0.1393
      8  CE       -10.7490  -11.6660  -15.5900 C.3    48  MET48       0.0692
      9  N        -10.5590   -6.5650  -14.1070 N.3    50  SER50      -0.1217
     10  CA        -9.1950   -6.7260  -13.6070 C.3    50  SER50       0.1889
     11  C         -8.4490   -5.4020  -13.4340 C.2    50  SER50       0.2288
     12  O         -8.2420   -4.6560  -14.3920 O.2    50  SER50      -0.2866
     13  CB        -8.4000   -7.6730  -14.5120 C.3    50  SER50       0.2089
     14  OG        -7.1550   -8.0180  -13.9260 O.3    50  SER50      -0.2183
     15  N         -4.7060   -5.2230  -15.1280 N.3    53  ASN53      -0.1240
     16  CA        -4.5770   -5.1910  -16.5840 C.3    53  ASN53       0.1653
     17  C         -4.6850   -3.7890  -17.1870 C.2    53  ASN53       0.2266
     18  O         -4.5410   -3.6340  -18.3980 O.2    53  ASN53      -0.2867
     19  CB        -5.6020   -6.1200  -17.2440 C.3    53  ASN53       0.1155
     20  CG        -5.1730   -7.5730  -17.2210 C.2    53  ASN53       0.2627
     21  OD1       -4.0710   -7.9150  -17.6480 O.2    53  ASN53      -0.2716
     22  ND2       -6.0500   -8.4390  -16.7290 N.am   53  ASN53      -0.0877
     23  N         -4.4530   -2.2430  -21.1780 N.3    57  ARG57      -0.1245
     24  CA        -5.5910   -1.6300  -21.8650 C.3    57  ARG57       0.1563
     25  C         -5.2290   -0.2420  -22.4090 C.2    57  ARG57       0.2260
     26  O         -5.5860    0.1100  -23.5360 O.2    57  ARG57      -0.2867
     27  CB        -6.8150   -1.5470  -20.9460 C.3    57  ARG57       0.0307
     28  CG        -7.3920   -2.9200  -20.5750 C.3    57  ARG57       0.0489
     29  CD        -8.7910   -2.7840  -20.0080 C.3    57  ARG57       0.2205
     30  NE        -8.7970   -2.0110  -18.7730 N.pl3  57  ARG57      -0.0865
     31  CZ        -8.6920   -2.5480  -17.5620 C.cat  57  ARG57       0.5346
     32  NH1       -8.5730   -3.8610  -17.4290 N.pl3  57  ARG57       0.1354
     33  NH2       -8.7070   -1.7720  -16.4860 N.pl3  57  ARG57       0.1354
     34  N         -9.2720  -11.8250  -30.4090 N.3    73  MET73      -0.1230
     35  CA        -9.7350  -13.2070  -30.2890 C.3    73  MET73       0.1702
     36  C        -10.4170  -13.5610  -28.9730 C.2    73  MET73       0.2592
     37  O        -11.1860  -14.5260  -28.9080 O.2    73  MET73      -0.2718
     38  CB        -8.5880  -14.1790  -30.5730 C.3    73  MET73       0.0401
     39  CG        -8.1730  -14.1710  -32.0270 C.3    73  MET73       0.0596
     40  SD        -6.7470  -15.2020  -32.3420 S.3    73  MET73      -0.1393
     41  CE        -7.4160  -16.8200  -31.9600 C.3    73  MET73       0.0692
     42  N        -10.1480  -12.7840  -27.9320 N.am   74  PHE74      -0.1976
     43  CA       -10.7610  -13.0310  -26.6290 C.3    74  PHE74       0.1639
     44  C        -11.3430  -11.7320  -26.0590 C.2    74  PHE74       0.2290
     45  O        -10.8700  -11.2130  -25.0450 O.2    74  PHE74      -0.2864
     46  CB        -9.7180  -13.6290  -25.6770 C.3    74  PHE74       0.0560
     47  CG        -9.0320  -14.8660  -26.2180 C.ar   74  PHE74      -0.0200
     48  CD1       -7.9170  -14.7540  -27.0400 C.ar   74  PHE74      -0.0042
     49  CD2       -9.4990  -16.1430  -25.8980 C.ar   74  PHE74      -0.0042
     50  CE1       -7.2740  -15.8880  -27.5330 C.ar   74  PHE74      -0.0003
     51  CE2       -8.8630  -17.2840  -26.3910 C.ar   74  PHE74      -0.0003
     52  CZ        -7.7520  -17.1570  -27.2120 C.ar   74  PHE74      -0.0000
     53  N        -14.0400  -10.4200  -24.5340 N.3    76  GLY76      -0.1225
     54  CA       -14.7600  -10.1510  -23.3000 C.3    76  GLY76       0.1811
     55  C        -15.8200   -9.0780  -23.5050 C.2    76  GLY76       0.2280
     56  O        -16.5430   -9.0970  -24.5020 O.2    76  GLY76      -0.2866
     57  N        -12.5410   -4.9650  -23.1980 N.3    79  TYR79      -0.1227
     58  CA       -11.4290   -4.3630  -22.4660 C.3    79  TYR79       0.1736
     59  C        -10.3980   -3.7330  -23.3970 C.2    79  TYR79       0.2595
     60  O         -9.8760   -2.6540  -23.1200 O.2    79  TYR79      -0.2718
     61  CB       -10.7190   -5.4150  -21.6100 C.3    79  TYR79       0.0548
     62  CG       -11.6150   -6.1750  -20.6620 C.ar   79  TYR79      -0.0200
     63  CD1      -12.1220   -7.4220  -21.0060 C.ar   79  TYR79      -0.0009
     64  CD2      -11.9420   -5.6550  -19.4160 C.ar   79  TYR79      -0.0009
     65  CE1      -12.9360   -8.1240  -20.1390 C.ar   79  TYR79       0.0417
     66  CE2      -12.7540   -6.3530  -18.5420 C.ar   79  TYR79       0.0417
     67  CZ       -13.2480   -7.5870  -18.9090 C.ar   79  TYR79       0.1957
     68  OH       -14.0590   -8.2900  -18.0480 O.3    79  TYR79      -0.2866
     69  N        -10.0960   -4.4250  -24.4900 N.am   80  PHE80      -0.1976
     70  CA        -9.0680   -3.9850  -25.4250 C.3    80  PHE80       0.1639
     71  C         -9.7220   -3.4230  -26.6710 C.2    80  PHE80       0.2290
     72  O         -9.2590   -2.4440  -27.2560 O.2    80  PHE80      -0.2864
     73  CB        -8.1840   -5.1570  -25.8360 C.3    80  PHE80       0.0560
     74  CG        -7.3060   -5.6840  -24.7360 C.ar   80  PHE80      -0.0200
     75  CD1       -6.9780   -7.0310  -24.6820 C.ar   80  PHE80      -0.0042
     76  CD2       -6.7930   -4.8360  -23.7680 C.ar   80  PHE80      -0.0042
     77  CE1       -6.1550   -7.5180  -23.6810 C.ar   80  PHE80      -0.0003
     78  CE2       -5.9700   -5.3180  -22.7620 C.ar   80  PHE80      -0.0003
     79  CZ        -5.6500   -6.6590  -22.7190 C.ar   80  PHE80      -0.0000
     80  N        -14.2210  -11.1730  -31.0810 N.3    96  ILE96      -0.1231
     81  CA       -14.7840  -12.4940  -30.8270 C.3    96  ILE96       0.1692
     82  C        -14.8310  -12.7740  -29.3270 C.2    96  ILE96       0.2592
     83  O        -13.8550  -12.5570  -28.6130 O.2    96  ILE96      -0.2718
     84  CB       -13.9820  -13.5960  -31.5500 C.3    96  ILE96       0.0266
     85  CG1      -13.8690  -13.2690  -33.0410 C.3    96  ILE96       0.0019
     86  CG2      -14.6420  -14.9530  -31.3500 C.3    96  ILE96       0.0020
     87  CD1      -12.6860  -13.9030  -33.7290 C.3    96  ILE96       0.0001
     88  N        -15.9870  -13.2280  -28.8550 N.am   97  GLU97      -0.1966
     89  CA       -16.1790  -13.5730  -27.4500 C.3    97  GLU97       0.1733
     90  C        -17.1120  -14.7850  -27.3600 C.2    97  GLU97       0.2616
     91  O        -18.1770  -14.7910  -27.9640 O.2    97  GLU97      -0.2715
     92  CB       -16.7610  -12.3850  -26.6800 C.3    97  GLU97       0.0429
     93  CG       -17.2700  -12.7280  -25.2870 C.3    97  GLU97       0.1163
     94  CD       -16.2190  -13.4370  -24.4380 C.2    97  GLU97       0.3649
     95  OE1      -15.0750  -12.9420  -24.3680 O.co2  97  GLU97      -0.2457
     96  OE2      -16.5400  -14.4800  -23.8290 O.co2  97  GLU97      -0.2457
     97  N        -16.7010  -15.8050  -26.6130 N.am   98  LYS98      -0.1963
     98  CA       -17.4030  -17.0900  -26.5960 C.3    98  LYS98       0.1728
     99  C        -18.5410  -17.1470  -25.5740 C.2    98  LYS98       0.2616
    100  O        -19.5250  -17.8610  -25.7600 O.2    98  LYS98      -0.2715
    101  CB       -16.4080  -18.2140  -26.3100 C.3    98  LYS98       0.0311
    102  CG       -17.0280  -19.5960  -26.2670 C.3    98  LYS98       0.0038
    103  CD       -15.9990  -20.6350  -25.8280 C.3    98  LYS98       0.0206
    104  CE       -15.3320  -20.2280  -24.5210 C.3    98  LYS98       0.1093
    105  NZ       -14.4310  -21.2870  -23.9870 N.3    98  LYS98      -0.1314
    106  N        -18.3970  -16.3970  -24.4880 N.am   99  ASN99      -0.1972
    107  CA       -19.3720  -16.4310  -23.4110 C.3    99  ASN99       0.1688
    108  C        -20.5340  -15.4650  -23.6770 C.2    99  ASN99       0.2292
    109  O        -20.3230  -14.2640  -23.8710 O.2    99  ASN99      -0.2864
    110  CB       -18.6840  -16.1430  -22.0770 C.3    99  ASN99       0.1181
    111  CG       -19.6480  -16.1440  -20.9070 C.2    99  ASN99       0.2629
    112  OD1      -19.8080  -17.1530  -20.2190 O.2    99  ASN99      -0.2716
    113  ND2      -20.2910  -15.0120  -20.6740 N.am   99  ASN99      -0.0877
    114  N        -20.8680  -12.2560  -21.3790 N.3   102  ALA102     -0.1245
    115  CA       -19.8510  -11.2490  -21.6810 C.3   102  ALA102      0.1562
    116  C        -20.1210  -10.6390  -23.0510 C.2   102  ALA102      0.2260
    117  O        -19.9690   -9.4300  -23.2470 O.2   102  ALA102     -0.2867
    118  CB       -18.4350  -11.8520  -21.6220 C.3   102  ALA102      0.0290
    119  N        -18.8600  -16.4990  -30.4100 N.3   123  ALA123     -0.1231
    120  CA       -18.3320  -17.7760  -30.8630 C.3   123  ALA123      0.1694
    121  C        -17.0390  -18.1390  -30.1640 C.2   123  ALA123      0.2592
    122  O        -16.3640  -17.2850  -29.5980 O.2   123  ALA123     -0.2718
    123  CB       -18.1030  -17.7360  -32.3660 C.3   123  ALA123      0.0304
    124  N        -16.7040  -19.4240  -30.1990 N.am  124  ASP124     -0.1960
    125  CA       -15.3430  -19.8440  -29.9270 C.3   124  ASP124      0.1840
    126  C        -14.5160  -19.3780  -31.1180 C.2   124  ASP124      0.2622
    127  O        -14.8660  -19.6780  -32.2640 O.2   124  ASP124     -0.2715
    128  CB       -15.2720  -21.3640  -29.8000 C.3   124  ASP124      0.1450
    129  CG       -13.9060  -21.8450  -29.3530 C.2   124  ASP124      0.3671
    130  OD1      -12.8900  -21.4090  -29.9370 O.co2 124  ASP124     -0.2456
    131  OD2      -13.8500  -22.6460  -28.4050 O.co2 124  ASP124     -0.2456
    132  N        -13.4380  -18.6340  -30.8680 N.am  125  ASN125     -0.1958
    133  CA       -12.6560  -18.0950  -31.9790 C.3   125  ASN125      0.1819
    134  C        -12.1660  -19.1880  -32.9330 C.2   125  ASN125      0.2621
    135  O        -11.9380  -18.9340  -34.1160 O.2   125  ASN125     -0.2715
    136  CB       -11.5090  -17.1920  -31.5020 C.3   125  ASN125      0.1195
    137  CG       -10.4890  -17.9250  -30.6520 C.2   125  ASN125      0.2630
    138  OD1       -9.9650  -18.9690  -31.0440 O.2   125  ASN125     -0.2716
    139  ND2      -10.1790  -17.3600  -29.4880 N.am  125  ASN125     -0.0877
    140  N        -12.0430  -20.4110  -32.4280 N.am  126  ARG126     -0.1977
    141  CA       -11.5750  -21.5110  -33.2650 C.3   126  ARG126      0.1597
    142  C        -12.6050  -21.8820  -34.3240 C.2   126  ARG126      0.2287
    143  O        -12.2850  -22.5690  -35.2930 O.2   126  ARG126     -0.2864
    144  CB       -11.2000  -22.7220  -32.4120 C.3   126  ARG126      0.0334
    145  CG        -9.8940  -22.5280  -31.6530 C.3   126  ARG126      0.0492
    146  CD        -9.7260  -23.5810  -30.5810 C.3   126  ARG126      0.2205
    147  NE       -10.6400  -23.3740  -29.4620 N.pl3 126  ARG126     -0.0865
    148  CZ       -10.5780  -24.0510  -28.3200 C.cat 126  ARG126      0.5346
    149  NH1       -9.6450  -24.9760  -28.1520 N.pl3 126  ARG126      0.1354
    150  NH2      -11.4440  -23.8030  -27.3470 N.pl3 126  ARG126      0.1354
    151  N         -5.4330  -11.8040  -25.7890 N.3   140  GLY140     -0.1210
    152  CA        -5.4300  -11.5640  -24.3540 C.3   140  GLY140      0.1956
    153  C         -6.0450  -12.6950  -23.5410 C.2   140  GLY140      0.2611
    154  O         -7.1510  -12.5630  -23.0230 O.2   140  GLY140     -0.2717
    155  N         -5.3190  -13.8010  -23.4230 N.am  141  TYR141     -0.1976
    156  CA        -5.7930  -15.0050  -22.7340 C.3   141  TYR141      0.1639
    157  C         -4.5630  -15.7450  -22.2500 C.2   141  TYR141      0.2290
    158  O         -3.5400  -15.7310  -22.9260 O.2   141  TYR141     -0.2864
    159  CB        -6.5810  -15.8900  -23.7030 C.3   141  TYR141      0.0560
    160  CG        -7.4260  -16.9730  -23.0570 C.ar  141  TYR141     -0.0198
    161  CD1       -8.4110  -16.6590  -22.1240 C.ar  141  TYR141     -0.0009
    162  CD2       -7.2640  -18.3070  -23.4090 C.ar  141  TYR141     -0.0009
    163  CE1       -9.1950  -17.6490  -21.5440 C.ar  141  TYR141      0.0417
    164  CE2       -8.0410  -19.2970  -22.8410 C.ar  141  TYR141      0.0417
    165  CZ        -9.0030  -18.9680  -21.9100 C.ar  141  TYR141      0.1957
    166  OH        -9.7750  -19.9660  -21.3470 O.3   141  TYR141     -0.2866
    167  N         -4.1140  -21.8100  -29.7570 N.3   148  PHE148     -0.1241
    168  CA        -4.9800  -20.9900  -30.5920 C.3   148  PHE148      0.1605
    169  C         -4.2220  -20.3310  -31.7460 C.2   148  PHE148      0.2264
    170  O         -4.8300  -19.6640  -32.5810 O.2   148  PHE148     -0.2867
    171  CB        -5.6640  -19.9110  -29.7410 C.3   148  PHE148      0.0534
    172  CG        -6.6230  -20.4590  -28.7100 C.ar  148  PHE148     -0.0203
    173  CD1       -7.9620  -20.6240  -29.0080 C.ar  148  PHE148     -0.0042
    174  CD2       -6.1790  -20.8020  -27.4420 C.ar  148  PHE148     -0.0042
    175  CE1       -8.8420  -21.1220  -28.0620 C.ar  148  PHE148     -0.0003
    176  CE2       -7.0480  -21.2970  -26.4920 C.ar  148  PHE148     -0.0003
    177  CZ        -8.3850  -21.4590  -26.8010 C.ar  148  PHE148     -0.0000
@<TRIPOS>BOND
     1   143   142    2
     2   142   141    1
     3   135   134    2
     4    87    85    1
     5   141   140    1
     6   141   144    1
     7    85    84    1
     8   134   140   am
     9   134   133    1
    10   170   169    2
    11   144   145    1
    12   123   120    1
    13    40    39    1
    14    40    41    1
    15   127   126    2
    16    39    38    1
    17   133   136    1
    18   133   132    1
    19   169   168    1
    20   145   146    1
    21    84    86    1
    22    84    81    1
    23   136   137    1
    24   126   132   am
    25   126   125    1
    26    80    81    1
    27   138   137    2
    28   120   119    1
    29   120   121    1
    30    81    82    1
    31   137   139   am
    32   168   167    1
    33   168   171    1
    34   146   147    1
    35    38    35    1
    36    34    35    1
    37    35    36    1
    38   124   121   am
    39   124   125    1
    40   121   122    2
    41   130   129   ar
    42   125   128    1
    43   128   129    1
    44   171   172    1
    45   147   148    2
    46   129   131   ar
    47    82    88   am
    48    82    83    2
    49   173   172   ar
    50   173   175   ar
    51    36    37    2
    52    36    42   am
    53    88    89    1
    54   172   174   ar
    55   148   149    1
    56   148   150    1
    57   175   177   ar
    58    91    90    2
    59    42    43    1
    60    50    52   ar
    61    50    48   ar
    62    89    90    1
    63    89    92    1
    64   174   176   ar
    65    90    97   am
    66    72    71    2
    67    52    51   ar
    68    48    47   ar
    69   177   176   ar
    70    92    93    1
    71    71    70    1
    72    43    44    1
    73    43    46    1
    74    97    98    1
    75    98   101    1
    76    98    99    1
    77    51    49   ar
    78   101   102    1
    79   102   103    1
    80    47    49   ar
    81    47    46    1
    82    44    45    2
    83    73    70    1
    84    73    74    1
    85   103   104    1
    86   151   152    1
    87   100    99    2
    88    99   106   am
    89    70    69    1
    90    93    94    1
    91    74    75   ar
    92    74    76   ar
    93    75    77   ar
    94    53    54    1
    95   104   105    1
    96    56    55    2
    97    69    59   am
    98   106   107    1
    99    94    95   ar
   100    94    96   ar
   101   152   153    1
   102   109   108    2
   103    76    78   ar
   104   159   160    1
   105   159   156    1
   106    77    79   ar
   107   108   107    1
   108   153   155   am
   109   153   154    2
   110    26    25    2
   111    55    54    1
   112   155   156    1
   113   107   110    1
   114   162   160   ar
   115   162   164   ar
   116    59    60    2
   117    59    58    1
   118   117   116    2
   119    57    58    1
   120   160   161   ar
   121   116   115    1
   122   158   157    2
   123   164   165   ar
   124    78    79   ar
   125   156   157    1
   126    58    61    1
   127    25    24    1
   128   161   163   ar
   129   110   111    1
   130   165   163   ar
   131   165   166    1
   132    24    23    1
   133    24    27    1
   134   115   118    1
   135   115   114    1
   136    61    62    1
   137    63    62   ar
   138    63    65   ar
   139    27    28    1
   140   111   113   am
   141   111   112    2
   142    62    64   ar
   143    28    29    1
   144    65    67   ar
   145    29    30    1
   146    64    66   ar
   147    67    66   ar
   148    67    68    1
   149    30    31    2
   150    18    17    2
   151    21    20    2
   152    31    32    1
   153    31    33    1
   154    19    20    1
   155    19    16    1
   156    20    22   am
   157    17    16    1
   158    16    15    1
   159     8     7    1
   160     7     6    1
   161     4     3    2
   162    13    14    1
   163    13    10    1
   164    12    11    2
   165     9    10    1
   166     1     2    1
   167     3     2    1
   168     6     5    1
   169    10    11    1
   170     2     5    1
