@<TRIPOS>MOLECULE
tmp/3a29B00.pdb
 119 111 0 0 0
SMALL
GASTEIGER

@<TRIPOS>ATOM
      1  N         27.7190    8.2500   31.8230 N.3     9  VAL9       -0.1245
      2  CA        28.8720    7.9320   32.6410 C.3     9  VAL9        0.1561
      3  C         28.5590    6.8640   33.6900 C.2     9  VAL9        0.2260
      4  O         29.3240    5.9120   33.8590 O.2     9  VAL9       -0.2867
      5  CB        29.4150    9.2200   33.3130 C.3     9  VAL9        0.0252
      6  CG1       30.2690    8.8860   34.5300 C.3     9  VAL9        0.0019
      7  CG2       30.2390   10.0010   32.3040 C.3     9  VAL9        0.0019
      8  N         28.2810    3.3940   31.9710 N.3    12  GLU12      -0.1231
      9  CA        29.5680    2.8080   31.6000 C.3    12  GLU12       0.1699
     10  C         30.2970    2.3520   32.8560 C.2    12  GLU12       0.2592
     11  O         30.9510    1.3120   32.8610 O.2    12  GLU12      -0.2718
     12  CB        30.4540    3.8050   30.8400 C.3    12  GLU12       0.0402
     13  CG        29.9920    4.1150   29.4280 C.3    12  GLU12       0.1161
     14  CD        29.6250    2.8620   28.6390 C.2    12  GLU12       0.3649
     15  OE1       30.4640    1.9360   28.5270 O.co2  12  GLU12      -0.2457
     16  OE2       28.4860    2.8070   28.1280 O.co2  12  GLU12      -0.2457
     17  N         30.1840    3.1380   33.9190 N.am   13  GLY13      -0.1957
     18  CA        30.8260    2.7750   35.1650 C.3    13  GLY13       0.1869
     19  C         30.2190    1.4970   35.7140 C.2    13  GLY13       0.2309
     20  O         30.9230    0.6070   36.1850 O.2    13  GLY13      -0.2863
     21  N         31.6530   -1.4740   33.8980 N.3    16  ALA16      -0.1245
     22  CA        33.0380   -1.7790   34.2290 C.3    16  ALA16       0.1562
     23  C         33.1200   -2.6360   35.4950 C.2    16  ALA16       0.2260
     24  O         34.1100   -3.3270   35.7170 O.2    16  ALA16      -0.2867
     25  CB        33.8260   -0.4870   34.4100 C.3    16  ALA16       0.0290
     26  N         33.5090   -1.8380   38.7110 N.3    18  GLY18      -0.1210
     27  CA        34.6180   -1.4620   39.5660 C.3    18  GLY18       0.1956
     28  C         34.1450   -0.7940   40.8420 C.2    18  GLY18       0.2613
     29  O         33.0500   -1.0730   41.3230 O.2    18  GLY18      -0.2717
     30  N         34.9580    0.0970   41.3980 N.am   19  THR19      -0.1938
     31  CA        34.5810    0.7810   42.6340 C.3    19  THR19       0.2028
     32  C         33.6460    1.9700   42.4060 C.2    19  THR19       0.2643
     33  O         32.9550    2.4060   43.3260 O.2    19  THR19      -0.2714
     34  CB        35.8180    1.2710   43.4150 C.3    19  THR19       0.1808
     35  OG1       36.5230    2.2620   42.6470 O.3    19  THR19      -0.2208
     36  CG2       36.7420    0.0970   43.7160 C.3    19  THR19       0.0379
     37  N         33.6120    2.4800   41.1770 N.am   20  GLY20      -0.1939
     38  CA        32.7600    3.6150   40.8740 C.3    20  GLY20       0.2014
     39  C         33.5310    4.9210   40.9940 C.2    20  GLY20       0.2639
     40  O         32.9690    6.0080   40.8730 O.2    20  GLY20      -0.2714
     41  N         34.8340    4.8110   41.2260 N.am   21  GLU21      -0.1963
     42  CA        35.6910    5.9780   41.3730 C.3    21  GLU21       0.1733
     43  C         35.7340    6.8610   40.1340 C.2    21  GLU21       0.2616
     44  O         35.5220    8.0800   40.2160 O.2    21  GLU21      -0.2715
     45  CB        37.1150    5.5530   41.7100 C.3    21  GLU21       0.0429
     46  CG        37.5050    5.7670   43.1600 C.3    21  GLU21       0.1163
     47  CD        38.9590    5.4200   43.4120 C.2    21  GLU21       0.3649
     48  OE1       39.3490    4.2610   43.1760 O.co2  21  GLU21      -0.2457
     49  OE2       39.7150    6.3050   43.8390 O.co2  21  GLU21      -0.2457
     50  N         36.0210    6.2540   38.9830 N.am   22  LEU22      -0.1963
     51  CA        36.0970    7.0150   37.7370 C.3    22  LEU22       0.1728
     52  C         34.7950    7.7730   37.4770 C.2    22  LEU22       0.2616
     53  O         34.8000    8.8720   36.9270 O.2    22  LEU22      -0.2715
     54  CB        36.4270    6.0930   36.5610 C.3    22  LEU22       0.0311
     55  CG        36.5620    6.7980   35.2060 C.3    22  LEU22       0.0022
     56  CD1       37.4820    7.9930   35.3020 C.3    22  LEU22       0.0001
     57  CD2       37.0640    5.8170   34.1950 C.3    22  LEU22       0.0001
     58  N         33.6860    7.1760   37.8860 N.am   23  THR23      -0.1951
     59  CA        32.3720    7.7870   37.7380 C.3    23  THR23       0.1897
     60  C         32.3440    9.1140   38.5160 C.2    23  THR23       0.2313
     61  O         31.9060   10.1510   38.0050 O.2    23  THR23      -0.2863
     62  CB        31.2830    6.8390   38.2970 C.3    23  THR23       0.1794
     63  OG1       31.1050    5.7430   37.3920 O.3    23  THR23      -0.2208
     64  CG2       29.9550    7.5760   38.5050 C.3    23  THR23       0.0378
     65  N         34.6380   11.6890   36.8120 N.3    26  LEU26      -0.1245
     66  CA        33.9910   12.2790   35.6470 C.3    26  LEU26       0.1561
     67  C         32.8560   13.2270   36.0440 C.2    26  LEU26       0.2260
     68  O         32.7170   14.3060   35.4800 O.2    26  LEU26      -0.2867
     69  CB        33.4870   11.1710   34.7070 C.3    26  LEU26       0.0270
     70  CG        34.6180   10.3770   34.0340 C.3    26  LEU26       0.0019
     71  CD1       34.0430    9.2290   33.2170 C.3    26  LEU26       0.0001
     72  CD2       35.4610   11.3100   33.1610 C.3    26  LEU26       0.0001
     73  N         42.6430    6.5420   42.8400 N.3    95  LYS95      -0.1231
     74  CA        43.6390    5.8800   42.0060 C.3    95  LYS95       0.1693
     75  C         43.9070    6.4980   40.6340 C.2    95  LYS95       0.2592
     76  O         44.6920    5.9510   39.8590 O.2    95  LYS95      -0.2718
     77  CB        43.2560    4.4100   41.8350 C.3    95  LYS95       0.0285
     78  CG        41.8670    4.2150   41.2670 C.3    95  LYS95       0.0035
     79  CD        41.4670    2.7510   41.2290 C.3    95  LYS95       0.0206
     80  CE        40.0170    2.6180   40.8060 C.3    95  LYS95       0.1093
     81  NZ        39.6010    1.1930   40.7460 N.3    95  LYS95      -0.1314
     82  N         43.2940    7.6380   40.3340 N.am   96  TYR96      -0.1976
     83  CA        43.4850    8.2520   39.0300 C.3    96  TYR96       0.1639
     84  C         44.4040    9.4540   38.9830 C.2    96  TYR96       0.2290
     85  O         44.5290   10.2090   39.9520 O.2    96  TYR96      -0.2864
     86  CB        42.1330    8.6230   38.4350 C.3    96  TYR96       0.0560
     87  CG        41.3280    7.3980   38.0630 C.ar   96  TYR96      -0.0198
     88  CD1       41.6420    6.6470   36.9220 C.ar   96  TYR96      -0.0009
     89  CD2       40.2750    6.9590   38.8730 C.ar   96  TYR96      -0.0009
     90  CE1       40.9270    5.4940   36.5990 C.ar   96  TYR96       0.0417
     91  CE2       39.5600    5.8110   38.5600 C.ar   96  TYR96       0.0417
     92  CZ        39.8910    5.0820   37.4230 C.ar   96  TYR96       0.1957
     93  OH        39.1870    3.9380   37.1330 O.3    96  TYR96      -0.2866
     94  N         45.2980    5.6860   35.1360 N.3   123  ARG123     -0.1245
     95  CA        45.1450    4.9610   36.3860 C.3   123  ARG123      0.1563
     96  C         46.5590    4.8900   36.9440 C.2   123  ARG123      0.2260
     97  O         47.4980    4.5910   36.2040 O.2   123  ARG123     -0.2867
     98  CB        44.6160    3.5550   36.1240 C.3   123  ARG123      0.0307
     99  CG        44.1840    2.7990   37.3730 C.3   123  ARG123      0.0489
    100  CD        42.7620    2.3010   37.2060 C.3   123  ARG123      0.2205
    101  NE        42.6330    1.5330   35.9700 N.pl3 123  ARG123     -0.0865
    102  CZ        41.5110    1.4190   35.2670 C.cat 123  ARG123      0.5346
    103  NH1       40.4030    2.0260   35.6780 N.pl3 123  ARG123      0.1354
    104  NH2       41.5040    0.7140   34.1380 N.pl3 123  ARG123      0.1354
    105  N         42.8140    6.0780   30.0800 N.3   143  VAL143     -0.1245
    106  CA        41.5710    5.3960   30.4210 C.3   143  VAL143      0.1561
    107  C         40.4150    6.1910   29.8070 C.2   143  VAL143      0.2260
    108  O         39.4040    5.6330   29.3760 O.2   143  VAL143     -0.2867
    109  CB        41.3520    5.3300   31.9560 C.3   143  VAL143      0.0252
    110  CG1       39.9500    4.8090   32.2560 C.3   143  VAL143      0.0019
    111  CG2       42.3950    4.4250   32.6070 C.3   143  VAL143      0.0019
    112  N         36.6460    7.1840   25.2470 N.3   160  MET160     -0.1245
    113  CA        37.0360    6.0400   26.0620 C.3   160  MET160      0.1570
    114  C         37.2270    4.8770   25.1110 C.2   160  MET160      0.2261
    115  O         37.0740    5.0350   23.8950 O.2   160  MET160     -0.2867
    116  CB        35.9530    5.6920   27.0910 C.3   160  MET160      0.0387
    117  CG        35.7650    6.7480   28.1740 C.3   160  MET160      0.0595
    118  SD        34.5680    6.2970   29.4520 S.3   160  MET160     -0.1393
    119  CE        33.0230    6.4970   28.5520 C.3   160  MET160      0.0692
@<TRIPOS>BOND
     1   115   114    2
     2   114   113    1
     3   112   113    1
     4   113   116    1
     5   116   117    1
     6    16    14   ar
     7   117   118    1
     8    15    14   ar
     9   119   118    1
    10    14    13    1
    11   108   107    2
    12    13    12    1
    13   107   106    1
    14   105   106    1
    15   106   109    1
    16    12     9    1
    17     9     8    1
    18     9    10    1
    19     1     2    1
    20   109   110    1
    21   109   111    1
    22     7     5    1
    23     2     5    1
    24     2     3    1
    25    10    11    2
    26    10    17   am
    27    72    70    1
    28    71    70    1
    29     5     6    1
    30     3     4    2
    31    21    22    1
    32    17    18    1
    33    70    69    1
    34   104   102    1
    35    57    55    1
    36    22    25    1
    37    22    23    1
    38    69    66    1
    39    94    95    1
    40    18    19    1
    41    55    56    1
    42    55    54    1
    43   102   103    1
    44   102   101    2
    45    68    67    2
    46    23    24    2
    47    66    67    1
    48    66    65    1
    49    19    20    2
    50   101   100    1
    51    98    95    1
    52    98    99    1
    53    97    96    2
    54    95    96    1
    55    54    51    1
    56    90    88   ar
    57    90    92   ar
    58    88    87   ar
    59    53    52    2
    60    93    92    1
    61   100    99    1
    62    63    62    1
    63    92    91   ar
    64    52    51    1
    65    52    58   am
    66    51    50    1
    67    59    58    1
    68    59    62    1
    69    59    60    1
    70    61    60    2
    71    87    86    1
    72    87    89   ar
    73    62    64    1
    74    86    83    1
    75    91    89   ar
    76    26    27    1
    77    50    43   am
    78    84    83    1
    79    84    85    2
    80    83    82    1
    81    27    28    1
    82    76    75    2
    83    43    44    2
    84    43    42    1
    85    82    75   am
    86    75    74    1
    87    81    80    1
    88    80    79    1
    89    28    29    2
    90    28    30   am
    91    40    39    2
    92    38    39    1
    93    38    37    1
    94    39    41   am
    95    37    32   am
    96    41    42    1
    97    79    78    1
    98    78    77    1
    99    42    45    1
   100    30    31    1
   101    45    46    1
   102    77    74    1
   103    74    73    1
   104    32    31    1
   105    32    33    2
   106    31    34    1
   107    35    34    1
   108    46    47    1
   109    48    47   ar
   110    47    49   ar
   111    34    36    1
