@<TRIPOS>MOLECULE
tmp/3a2bA01.pdb
 133 123 0 0 0
SMALL
GASTEIGER

@<TRIPOS>ATOM
      1  N         39.4260   -0.9380   50.0390 N.3    51  ASN51      -0.1240
      2  CA        39.3320   -0.2440   48.7570 C.3    51  ASN51       0.1653
      3  C         40.4300   -0.7670   47.8240 C.2    51  ASN51       0.2266
      4  O         40.5720   -0.2960   46.6940 O.2    51  ASN51      -0.2867
      5  CB        39.4860    1.2720   48.9350 C.3    51  ASN51       0.1155
      6  CG        38.3430    1.8970   49.7160 C.2    51  ASN51       0.2627
      7  OD1       37.2020    1.4320   49.6610 O.2    51  ASN51      -0.2716
      8  ND2       38.6440    2.9760   50.4350 N.am   51  ASN51      -0.0877
      9  N         47.3590   13.5780   48.3490 N.3   111  THR111     -0.1203
     10  CA        46.2590   12.6530   48.6310 C.3   111  THR111      0.1994
     11  C         45.1790   12.8140   47.5650 C.2   111  THR111      0.2618
     12  O         45.1630   13.8100   46.8410 O.2   111  THR111     -0.2717
     13  CB        45.5910   12.9420   50.0020 C.3   111  THR111      0.1784
     14  OG1       45.0250   14.2630   50.0000 O.3   111  THR111     -0.2211
     15  CG2       46.5990   12.8270   51.1340 C.3   111  THR111      0.0376
     16  N         44.2900   11.8240   47.4650 N.am  112  GLY112     -0.1942
     17  CA        43.1950   11.9110   46.5190 C.3   112  GLY112      0.2014
     18  C         42.2650   13.0410   46.9410 C.2   112  GLY112      0.2638
     19  O         41.7100   13.7470   46.1050 O.2   112  GLY112     -0.2714
     20  N         42.1260   13.2270   48.2520 N.am  113  PHE113     -0.1973
     21  CA        41.2800   14.2780   48.8090 C.3   113  PHE113      0.1639
     22  C         41.7040   15.6540   48.2770 C.2   113  PHE113      0.2290
     23  O         40.8690   16.4410   47.8140 O.2   113  PHE113     -0.2864
     24  CB        41.3910   14.2550   50.3340 C.3   113  PHE113      0.0560
     25  CG        40.3090   15.0170   51.0410 C.ar  113  PHE113     -0.0200
     26  CD1       40.3960   16.3950   51.1990 C.ar  113  PHE113     -0.0042
     27  CD2       39.2110   14.3450   51.5770 C.ar  113  PHE113     -0.0042
     28  CE1       39.4080   17.1070   51.8810 C.ar  113  PHE113     -0.0003
     29  CE2       38.2120   15.0430   52.2650 C.ar  113  PHE113     -0.0003
     30  CZ        38.3110   16.4300   52.4170 C.ar  113  PHE113     -0.0000
     31  N         31.4990   12.6290   46.4550 N.3   137  HIS137     -0.1241
     32  CA        32.3460   12.4080   47.6190 C.3   137  HIS137      0.1621
     33  C         32.5360   13.7120   48.3950 C.2   137  HIS137      0.2264
     34  O         32.4580   14.8020   47.8240 O.2   137  HIS137     -0.2867
     35  CB        33.7050   11.8560   47.1860 C.3   137  HIS137      0.0745
     36  CG        34.5540   11.3860   48.3260 C.ar  137  HIS137      0.0817
     37  ND1       35.6300   12.1050   48.7980 N.ar  137  HIS137     -0.2268
     38  CD2       34.4910   10.2620   49.0790 C.ar  137  HIS137      0.1154
     39  CE1       36.1950   11.4430   49.7930 C.ar  137  HIS137      0.1986
     40  NE2       35.5240   10.3210   49.9820 N.ar  137  HIS137     -0.2212
     41  N         35.1420   15.1560   49.5430 N.3   139  SER139     -0.1217
     42  CA        36.2540   15.9750   49.0490 C.3   139  SER139      0.1889
     43  C         35.8130   16.9020   47.9210 C.2   139  SER139      0.2288
     44  O         36.3580   17.9980   47.7600 O.2   139  SER139     -0.2866
     45  CB        37.4450   15.1050   48.6100 C.3   139  SER139      0.2089
     46  OG        37.1000   14.1890   47.5900 O.3   139  SER139     -0.2183
     47  N         31.3500   11.8420   40.6350 N.3   180  ASP180     -0.1239
     48  CA        32.0880   10.6290   40.9540 C.3   180  ASP180      0.1674
     49  C         31.8790    9.7720   39.6990 C.2   180  ASP180      0.2266
     50  O         30.8520    9.9110   39.0310 O.2   180  ASP180     -0.2867
     51  CB        31.4130    9.8700   42.1090 C.3   180  ASP180      0.1410
     52  CG        31.7020   10.4600   43.4850 C.2   180  ASP180      0.3668
     53  OD1       31.7060   11.6970   43.6550 O.co2 180  ASP180     -0.2456
     54  OD2       31.8850    9.6580   44.4210 O.co2 180  ASP180     -0.2456
     55  N         32.3260    6.1610   39.7040 N.3   182  ILE182     -0.1245
     56  CA        31.5900    5.1170   40.4050 C.3   182  ILE182      0.1561
     57  C         31.3970    5.7160   41.7950 C.2   182  ILE182      0.2260
     58  O         32.3650    6.1580   42.4200 O.2   182  ILE182     -0.2867
     59  CB        32.4090    3.8010   40.5320 C.3   182  ILE182      0.0252
     60  CG1       32.4460    3.0650   39.1860 C.3   182  ILE182      0.0019
     61  CG2       31.8160    2.8970   41.6330 C.3   182  ILE182      0.0019
     62  CD1       33.3440    1.8480   39.1850 C.3   182  ILE182      0.0001
     63  N         30.8440    5.7320   45.6730 N.3   184  SER184     -0.1217
     64  CA        31.2220    4.8440   46.7770 C.3   184  SER184      0.1889
     65  C         30.1070    4.2400   47.6320 C.2   184  SER184      0.2288
     66  O         30.2150    3.0880   48.0590 O.2   184  SER184     -0.2866
     67  CB        32.2620    5.5210   47.6790 C.3   184  SER184      0.2089
     68  OG        31.8500    6.8160   48.0920 O.3   184  SER184     -0.2183
     69  N         35.5480   12.1650   38.9920 N.3   209  ASP209     -0.1239
     70  CA        36.3830   11.6160   40.0680 C.3   209  ASP209      0.1674
     71  C         36.3600   10.0830   39.9510 C.2   209  ASP209      0.2266
     72  O         35.3810    9.4360   40.3370 O.2   209  ASP209     -0.2867
     73  CB        35.8340   12.0870   41.4260 C.3   209  ASP209      0.1410
     74  CG        36.5580   11.4790   42.6310 C.2   209  ASP209      0.3668
     75  OD1       37.1250   10.3650   42.5640 O.co2 209  ASP209     -0.2456
     76  OD2       36.5130   12.1210   43.6980 O.co2 209  ASP209     -0.2456
     77  N         38.1660    7.7390   41.6180 N.3   211  ALA211     -0.1231
     78  CA        38.7850    7.0480   42.7560 C.3   211  ALA211      0.1694
     79  C         38.4920    5.5420   42.7480 C.2   211  ALA211      0.2592
     80  O         39.3970    4.7170   42.9280 O.2   211  ALA211     -0.2718
     81  CB        38.2920    7.6580   44.0670 C.3   211  ALA211      0.0304
     82  N         37.2240    5.2000   42.5310 N.am  212  HIS212     -0.1976
     83  CA        36.7850    3.8120   42.5000 C.3   212  HIS212      0.1656
     84  C         36.6780    3.2030   41.0950 C.2   212  HIS212      0.2291
     85  O         36.3230    2.0370   40.9600 O.2   212  HIS212     -0.2864
     86  CB        35.4520    3.6710   43.2470 C.3   212  HIS212      0.0771
     87  CG        35.5290    4.0580   44.6910 C.ar  212  HIS212      0.0820
     88  ND1       36.0570    3.2280   45.6580 N.ar  212  HIS212     -0.2267
     89  CD2       35.1540    5.1890   45.3310 C.ar  212  HIS212      0.1154
     90  CE1       36.0010    3.8300   46.8310 C.ar  212  HIS212      0.1986
     91  NE2       35.4590    5.0230   46.6600 N.ar  212  HIS212     -0.2212
     92  N         40.0890   12.9770   37.2660 N.3   238  MET238     -0.1245
     93  CA        40.7620   12.9450   38.5560 C.3   238  MET238      0.1570
     94  C         40.7720   11.5070   39.0600 C.2   238  MET238      0.2261
     95  O         39.8470   10.7470   38.7860 O.2   238  MET238     -0.2867
     96  CB        40.0380   13.8770   39.5380 C.3   238  MET238      0.0387
     97  CG        40.4230   13.7230   41.0040 C.3   238  MET238      0.0595
     98  SD        39.6740   12.2580   41.7480 S.3   238  MET238     -0.1393
     99  CE        40.0260   12.4930   43.4970 C.3   238  MET238      0.0692
    100  N         42.7220    8.6000   42.2540 N.3   240  THR240     -0.1218
    101  CA        43.4350    8.4370   43.5200 C.3   240  THR240      0.1862
    102  C         44.3580    7.2390   43.4220 C.2   240  THR240      0.2287
    103  O         44.1440    6.3550   42.6000 O.2   240  THR240     -0.2866
    104  CB        42.4620    8.2170   44.7260 C.3   240  THR240      0.1770
    105  OG1       41.8070    6.9410   44.6090 O.3   240  THR240     -0.2211
    106  CG2       41.4120    9.3250   44.7800 C.3   240  THR240      0.0375
    107  N         45.1750    5.6080   46.3380 N.3   242  SER242     -0.1202
    108  CA        44.8930    4.8950   47.5840 C.3   242  SER242      0.2020
    109  C         43.9850    3.6620   47.5290 C.2   242  SER242      0.2618
    110  O         43.7160    3.0460   48.5700 O.2   242  SER242     -0.2717
    111  CB        44.3310    5.8760   48.6180 C.3   242  SER242      0.2103
    112  OG        43.0790    6.4230   48.2180 O.3   242  SER242     -0.2182
    113  N         43.5090    3.2980   46.3420 N.am  243  LYS243     -0.1979
    114  CA        42.6130    2.1500   46.2260 C.3   243  LYS243      0.1596
    115  C         43.2000    1.0310   45.3650 C.2   243  LYS243      0.2287
    116  O         43.9670    0.2170   45.8780 O.2   243  LYS243     -0.2864
    117  CB        41.2390    2.6390   45.7600 C.3   243  LYS243      0.0298
    118  CG        40.7500    3.7640   46.6730 C.3   243  LYS243      0.0038
    119  CD        39.4810    4.4550   46.2200 C.3   243  LYS243      0.0206
    120  CE        39.1470    5.5980   47.1720 C.3   243  LYS243      0.1093
    121  NZ        40.2280    6.6500   47.2400 N.3   243  LYS243     -0.1314
    122  N         49.1150    6.0280   48.1280 N.3   248  LEU248     -0.1231
    123  CA        48.5970    7.2350   48.7600 C.3   248  LEU248      0.1693
    124  C         48.9210    8.3950   47.8220 C.2   248  LEU248      0.2592
    125  O         50.0360    8.4970   47.2980 O.2   248  LEU248     -0.2718
    126  CB        49.2760    7.4300   50.1250 C.3   248  LEU248      0.0284
    127  CG        48.6010    8.1420   51.3080 C.3   248  LEU248      0.0019
    128  CD1       48.9020    9.6180   51.3020 C.3   248  LEU248      0.0001
    129  CD2       47.1050    7.8740   51.3250 C.3   248  LEU248      0.0001
    130  N         47.9250    9.2390   47.5830 N.am  249  GLY249     -0.1957
    131  CA        48.1000   10.3740   46.6970 C.3   249  GLY249      0.1869
    132  C         47.0350   10.3620   45.6150 C.2   249  GLY249      0.2309
    133  O         46.1770    9.4750   45.5880 O.2   249  GLY249     -0.2863
@<TRIPOS>BOND
     1    92    93    1
     2    93    94    1
     3    93    96    1
     4    95    94    2
     5    69    70    1
     6    50    49    2
     7    62    60    1
     8    60    59    1
     9    96    97    1
    10    49    48    1
    11    55    56    1
    12    71    70    1
    13    71    72    2
    14    70    73    1
    15    56    59    1
    16    56    57    1
    17    59    61    1
    18    47    48    1
    19    48    51    1
    20    85    84    2
    21    97    98    1
    22    84    83    1
    23    73    74    1
    24    77    78    1
    25    98    99    1
    26    57    58    2
    27    51    52    1
    28   100   101    1
    29    83    82    1
    30    83    86    1
    31    82    79   am
    32    75    74   ar
    33   103   102    2
    34    74    76   ar
    35    79    78    1
    36    79    80    2
    37    78    81    1
    38    86    87    1
    39   102   101    1
    40    52    53   ar
    41    52    54   ar
    42   101   104    1
    43   105   104    1
    44    87    89   ar
    45    87    88   ar
    46   104   106    1
    47    89    91   ar
    48   115   116    2
    49   115   114    1
    50   133   132    2
    51   132   131    1
    52    88    90   ar
    53    63    64    1
    54   117   114    1
    55   117   118    1
    56    19    18    2
    57   119   118    1
    58   119   120    1
    59   114   113    1
    60   107   108    1
    61   113   109   am
    62    31    32    1
    63    17    18    1
    64    17    16    1
    65    91    90   ar
    66     4     3    2
    67   131   130    1
    68    64    65    1
    69    64    67    1
    70    12    11    2
    71    18    20   am
    72   120   121    1
    73    35    32    1
    74    35    36    1
    75   125   124    2
    76    16    11   am
    77   109   108    1
    78   109   110    2
    79    11    10    1
    80   130   124   am
    81   108   111    1
    82    46    45    1
    83    32    33    1
    84    65    66    2
    85    67    68    1
    86    44    43    2
    87    23    22    2
    88   124   123    1
    89     3     2    1
    90    34    33    2
    91    43    42    1
    92   122   123    1
    93   112   111    1
    94    20    21    1
    95    22    21    1
    96    36    37   ar
    97    36    38   ar
    98     9    10    1
    99    45    42    1
   100    10    13    1
   101     2     5    1
   102     2     1    1
   103   123   126    1
   104    37    39   ar
   105    21    24    1
   106     5     6    1
   107    42    41    1
   108    38    40   ar
   109     7     6    2
   110     6     8   am
   111    39    40   ar
   112    14    13    1
   113    13    15    1
   114   126   127    1
   115    24    25    1
   116    25    26   ar
   117    25    27   ar
   118    26    28   ar
   119   128   127    1
   120   127   129    1
   121    27    29   ar
   122    28    30   ar
   123    29    30   ar
