@<TRIPOS>MOLECULE
tmp/3a2cC01.pdb
 118 116 0 0 0
SMALL
GASTEIGER

@<TRIPOS>ATOM
      1  N         56.3220   72.4200  125.1790 N.3    99  PHE99      -0.1241
      2  CA        55.6330   72.8400  126.3850 C.3    99  PHE99       0.1605
      3  C         54.9210   71.7160  127.1230 C.2    99  PHE99       0.2264
      4  O         54.9230   71.6770  128.3550 O.2    99  PHE99      -0.2867
      5  CB        54.6480   73.9630  126.0610 C.3    99  PHE99       0.0534
      6  CG        55.3050   75.2880  125.8630 C.ar   99  PHE99      -0.0203
      7  CD1       54.9050   76.1330  124.8470 C.ar   99  PHE99      -0.0042
      8  CD2       56.3560   75.6740  126.6740 C.ar   99  PHE99      -0.0042
      9  CE1       55.5460   77.3390  124.6410 C.ar   99  PHE99      -0.0003
     10  CE2       57.0000   76.8770  126.4730 C.ar   99  PHE99      -0.0003
     11  CZ        56.5960   77.7100  125.4550 C.ar   99  PHE99      -0.0000
     12  N         55.5880   77.2950  119.2690 N.3   141  PRO141     -0.2116
     13  CA        55.7320   76.0870  120.0850 C.3   141  PRO141      0.1372
     14  C         55.3470   74.7930  119.3790 C.2   141  PRO141      0.2244
     15  O         56.0420   73.7910  119.4930 O.2   141  PRO141     -0.2868
     16  CB        54.8540   76.3730  121.2920 C.3   141  PRO141      0.0268
     17  CG        54.8670   77.8600  121.3960 C.3   141  PRO141      0.0207
     18  CD        54.8350   78.3410  119.9810 C.3   141  PRO141      0.0892
     19  N         56.7200   82.8560  127.4190 N.3   191  ILE191     -0.1245
     20  CA        55.9300   81.6930  127.8190 C.3   191  ILE191      0.1561
     21  C         56.8410   80.8090  128.6600 C.2   191  ILE191      0.2260
     22  O         56.4890   80.3790  129.7460 O.2   191  ILE191     -0.2867
     23  CB        55.4770   80.8330  126.6120 C.3   191  ILE191      0.0252
     24  CG1       54.6790   81.6600  125.6100 C.3   191  ILE191      0.0019
     25  CG2       54.6040   79.6980  127.0920 C.3   191  ILE191      0.0019
     26  CD1       54.6230   81.0100  124.2340 C.3   191  ILE191      0.0001
     27  N         54.6970   80.5080  131.7660 N.3   195  GLY195     -0.1210
     28  CA        53.6050   79.6100  131.4260 C.3   195  GLY195      0.1956
     29  C         52.4850   80.2050  130.5890 C.2   195  GLY195      0.2612
     30  O         51.5850   79.4870  130.1710 O.2   195  GLY195     -0.2717
     31  N         52.5260   81.5090  130.3350 N.am  196  TYR196     -0.1962
     32  CA        51.5790   82.1330  129.4130 C.3   196  TYR196      0.1756
     33  C         52.2680   83.1340  128.4850 C.2   196  TYR196      0.2461
     34  O         53.4170   83.5160  128.7130 O.2   196  TYR196     -0.2730
     35  CB        50.4730   82.8380  130.1930 C.3   196  TYR196      0.0574
     36  CG        50.9800   83.6620  131.3370 C.ar  196  TYR196     -0.0198
     37  CD1       51.1400   85.0350  131.2100 C.ar  196  TYR196     -0.0009
     38  CD2       51.3000   83.0700  132.5540 C.ar  196  TYR196     -0.0009
     39  CE1       51.6010   85.7940  132.2620 C.ar  196  TYR196      0.0417
     40  CE2       51.7610   83.8180  133.6090 C.ar  196  TYR196      0.0417
     41  CZ        51.9100   85.1780  133.4560 C.ar  196  TYR196      0.1957
     42  OH        52.3810   85.9290  134.5050 O.3   196  TYR196     -0.2866
     43  N         51.5710   83.5560  127.4110 N.am  197  PRO197     -0.2727
     44  CA        52.0300   84.5580  126.4350 C.3   197  PRO197      0.1402
     45  C         52.0870   85.9610  127.0280 C.2   197  PRO197      0.2269
     46  O         51.3560   86.2740  127.9640 O.2   197  PRO197     -0.2865
     47  CB        50.9930   84.4770  125.3240 C.3   197  PRO197      0.0296
     48  CG        50.2970   83.1600  125.5310 C.3   197  PRO197      0.0237
     49  CD        50.3000   82.9380  126.9960 C.3   197  PRO197      0.0939
     50  N         51.2140   88.4690  125.2590 N.3   199  PHE199     -0.1227
     51  CA        50.0310   89.0770  124.6560 C.3   199  PHE199      0.1736
     52  C         48.9300   88.0180  124.5250 C.2   199  PHE199      0.2595
     53  O         49.1570   86.9550  123.9600 O.2   199  PHE199     -0.2718
     54  CB        50.3790   89.6440  123.2680 C.3   199  PHE199      0.0547
     55  CG        51.5660   90.5730  123.2630 C.ar  199  PHE199     -0.0202
     56  CD1       52.7790   90.1640  122.7400 C.ar  199  PHE199     -0.0042
     57  CD2       51.4700   91.8550  123.7880 C.ar  199  PHE199     -0.0042
     58  CE1       53.8750   91.0190  122.7400 C.ar  199  PHE199     -0.0003
     59  CE2       52.5650   92.7140  123.7910 C.ar  199  PHE199     -0.0003
     60  CZ        53.7620   92.2960  123.2690 C.ar  199  PHE199     -0.0000
     61  N         47.7380   88.2990  125.0410 N.am  200  TYR200     -0.1962
     62  CA        46.6610   87.3100  124.9840 C.3   200  TYR200      0.1771
     63  C         45.2730   87.9390  124.9380 C.2   200  TYR200      0.2620
     64  O         45.1220   89.0950  124.5610 O.2   200  TYR200     -0.2715
     65  CB        46.7590   86.3730  126.1860 C.3   200  TYR200      0.0574
     66  CG        46.9240   87.1100  127.4870 C.ar  200  TYR200     -0.0198
     67  CD1       48.0040   86.8610  128.3110 C.ar  200  TYR200     -0.0009
     68  CD2       46.0120   88.0760  127.8780 C.ar  200  TYR200     -0.0009
     69  CE1       48.1770   87.5500  129.4850 C.ar  200  TYR200      0.0417
     70  CE2       46.1730   88.7770  129.0560 C.ar  200  TYR200      0.0417
     71  CZ        47.2590   88.5110  129.8580 C.ar  200  TYR200      0.1957
     72  OH        47.4330   89.2080  131.0340 O.3   200  TYR200     -0.2866
     73  N         44.2600   87.1680  125.3240 N.am  201  SER201     -0.1936
     74  CA        42.8850   87.6620  125.3450 C.3   201  SER201      0.2055
     75  C         42.1070   87.1590  126.5570 C.2   201  SER201      0.2643
     76  O         42.6560   86.4640  127.4170 O.2   201  SER201     -0.2714
     77  CB        42.1530   87.2430  124.0700 C.3   201  SER201      0.2130
     78  OG        40.9080   87.9120  123.9730 O.3   201  SER201     -0.2179
     79  N         40.8250   87.5140  126.6170 N.am  202  ASN202     -0.1971
     80  CA        39.9330   87.0190  127.6660 C.3   202  ASN202      0.1688
     81  C         39.9080   85.4980  127.6480 C.2   202  ASN202      0.2292
     82  O         39.8190   84.8910  126.5790 O.2   202  ASN202     -0.2864
     83  CB        38.5090   87.5410  127.4550 C.3   202  ASN202      0.1181
     84  CG        37.7660   86.7890  126.3610 C.2   202  ASN202      0.2629
     85  OD1       37.3830   85.6320  126.5360 O.2   202  ASN202     -0.2716
     86  ND2       37.5590   87.4480  125.2260 N.am  202  ASN202     -0.0877
     87  N         43.7650   92.3880  122.0210 N.3   206  MET206     -0.1245
     88  CA        45.1010   91.8190  121.9600 C.3   206  MET206      0.1570
     89  C         45.8590   92.3770  120.7650 C.2   206  MET206      0.2261
     90  O         46.9980   92.8260  120.8900 O.2   206  MET206     -0.2867
     91  CB        45.0260   90.2980  121.8480 C.3   206  MET206      0.0387
     92  CG        46.3700   89.6150  121.9740 C.3   206  MET206      0.0595
     93  SD        46.2690   87.8980  121.5290 S.3   206  MET206     -0.1393
     94  CE        45.4360   88.0490  119.9490 C.3   206  MET206      0.0692
     95  N         54.1400   90.2450  135.4120 N.3   218  PRO218     -0.2116
     96  CA        53.3860   90.3070  136.6690 C.3   218  PRO218      0.1372
     97  C         54.0880   89.4900  137.7470 C.2   218  PRO218      0.2244
     98  O         55.0130   88.7440  137.4480 O.2   218  PRO218     -0.2868
     99  CB        52.0300   89.7060  136.3070 C.3   218  PRO218      0.0268
    100  CG        51.9710   89.7410  134.8080 C.3   218  PRO218      0.0207
    101  CD        53.3780   89.5820  134.3430 C.3   218  PRO218      0.0892
    102  N         54.5530   85.0570  139.3120 N.3   221  GLU221     -0.1245
    103  CA        55.3850   84.2380  138.4590 C.3   221  GLU221      0.1567
    104  C         56.6750   84.8940  137.9870 C.2   221  GLU221      0.2260
    105  O         57.6150   84.1980  137.6140 O.2   221  GLU221     -0.2867
    106  CB        54.5680   83.7570  137.2640 C.3   221  GLU221      0.0388
    107  CG        53.4460   84.6930  136.8880 C.3   221  GLU221      0.1160
    108  CD        52.0930   84.1950  137.3450 C.2   221  GLU221      0.3649
    109  OE1       52.0340   83.1080  137.9550 O.co2 221  GLU221     -0.2457
    110  OE2       51.0860   84.8900  137.0920 O.co2 221  GLU221     -0.2457
    111  N         51.0340   76.0660  133.2150 N.3   273  LEU273     -0.1245
    112  CA        50.6320   75.3100  132.0420 C.3   273  LEU273      0.1561
    113  C         49.4970   74.3300  132.3740 C.2   273  LEU273      0.2260
    114  O         48.5280   74.2680  131.5880 O.2   273  LEU273     -0.2867
    115  CB        51.8350   74.5640  131.4680 C.3   273  LEU273      0.0270
    116  CG        52.4130   75.0930  130.1540 C.3   273  LEU273      0.0019
    117  CD1       51.8710   76.4750  129.8640 C.3   273  LEU273      0.0001
    118  CD2       53.9300   75.0960  130.2500 C.3   273  LEU273      0.0001
@<TRIPOS>BOND
     1    12    18    1
     2    12    13    1
     3    14    15    2
     4    14    13    1
     5    94    93    1
     6    18    17    1
     7    13    16    1
     8    89    90    2
     9    89    88    1
    10    16    17    1
    11    93    92    1
    12    91    88    1
    13    91    92    1
    14    88    87    1
    15    58    56   ar
    16    58    60   ar
    17    56    55   ar
    18    55    54    1
    19    55    57   ar
    20    54    51    1
    21    60    59   ar
    22    57    59   ar
    23    53    52    2
    24    78    77    1
    25    77    74    1
    26    26    24    1
    27    52    51    1
    28    52    61   am
    29    64    63    2
    30     9     7   ar
    31     9    11   ar
    32    51    50    1
    33     7     6   ar
    34    63    62    1
    35    63    73   am
    36    62    61    1
    37    62    65    1
    38     1     2    1
    39    86    84   am
    40    73    74    1
    41    47    48    1
    42    47    44    1
    43    74    75    1
    44    11    10   ar
    45    48    49    1
    46    24    23    1
    47     6     5    1
    48     6     8   ar
    49     5     2    1
    50    65    66    1
    51    84    85    2
    52    84    83    1
    53     2     3    1
    54    44    45    1
    55    44    43    1
    56    10     8   ar
    57    75    79   am
    58    75    76    2
    59    82    81    2
    60    23    25    1
    61    23    20    1
    62    79    80    1
    63    49    43    1
    64    45    46    2
    65     3     4    2
    66    43    33   am
    67    19    20    1
    68    83    80    1
    69    66    68   ar
    70    66    67   ar
    71    81    80    1
    72    20    21    1
    73    68    70   ar
    74    67    69   ar
    75    33    34    2
    76    33    32    1
    77    21    22    2
    78    70    71   ar
    79    32    35    1
    80    32    31    1
    81    69    71   ar
    82    71    72    1
    83   117   116    1
    84   116   118    1
    85   116   115    1
    86    30    29    2
    87    35    36    1
    88    31    29   am
    89    29    28    1
    90    37    36   ar
    91    37    39   ar
    92    36    38   ar
    93    28    27    1
    94   115   112    1
    95   114   113    2
    96   112   113    1
    97   112   111    1
    98    39    41   ar
    99    38    40   ar
   100    41    40   ar
   101    41    42    1
   102   101   100    1
   103   101    95    1
   104   100    99    1
   105    95    96    1
   106    99    96    1
   107    96    97    1
   108   107   106    1
   109   107   108    1
   110   110   108   ar
   111   106   103    1
   112   108   109   ar
   113    98    97    2
   114   105   104    2
   115   104   103    1
   116   103   102    1
