@<TRIPOS>MOLECULE
tmp/3a2cC00.pdb
 137 127 0 0 0
SMALL
GASTEIGER

@<TRIPOS>ATOM
      1  N         46.9930   67.3450  105.4850 N.3    28  GLY28      -0.1225
      2  CA        48.0130   68.0900  106.1960 C.3    28  GLY28       0.1811
      3  C         48.4970   67.4610  107.4830 C.2    28  GLY28       0.2280
      4  O         49.1310   68.1270  108.2990 O.2    28  GLY28      -0.2866
      5  N         50.9600   65.1250  109.5220 N.3    30  VAL30      -0.1231
      6  CA        52.1970   64.3620  109.5710 C.3    30  VAL30       0.1692
      7  C         51.8630   62.9910  110.1280 C.2    30  VAL30       0.2592
      8  O         51.3630   62.8680  111.2390 O.2    30  VAL30      -0.2718
      9  CB        53.2330   65.0300  110.4870 C.3    30  VAL30       0.0266
     10  CG1       54.4930   64.1880  110.5610 C.3    30  VAL30       0.0020
     11  CG2       53.5490   66.4000  109.9740 C.3    30  VAL30       0.0020
     12  N         52.1330   61.9570  109.3510 N.am   31  LEU31      -0.1966
     13  CA        51.7800   60.6140  109.7640 C.3    31  LEU31       0.1728
     14  C         53.0280   59.7660  109.9180 C.2    31  LEU31       0.2616
     15  O         54.0580   60.0470  109.3130 O.2    31  LEU31      -0.2715
     16  CB        50.8350   60.0040  108.7370 C.3    31  LEU31       0.0311
     17  CG        49.6630   60.9540  108.4830 C.3    31  LEU31       0.0022
     18  CD1       48.8800   60.5010  107.2700 C.3    31  LEU31       0.0001
     19  CD2       48.7790   61.0230  109.7270 C.3    31  LEU31       0.0001
     20  N         52.9460   58.7370  110.7470 N.am   32  GLN32      -0.1977
     21  CA        54.0760   57.8400  110.9020 C.3    32  GLN32       0.1601
     22  C         54.0100   56.8440  109.7580 C.2    32  GLN32       0.2287
     23  O         52.9230   56.4740  109.3040 O.2    32  GLN32      -0.2864
     24  CB        54.0000   57.1140  112.2490 C.3    32  GLN32       0.0394
     25  CG        55.3280   56.5610  112.7480 C.3    32  GLN32       0.0908
     26  CD        55.3420   56.3520  114.2580 C.2    32  GLN32       0.2608
     27  OE1       56.1890   55.6350  114.7880 O.2    32  GLN32      -0.2717
     28  NE2       54.4010   56.9860  114.9560 N.am   32  GLN32      -0.0878
     29  N         58.3380   60.1970  110.1030 N.3    43  ALA43      -0.1245
     30  CA        57.1580   61.0210  109.8760 C.3    43  ALA43       0.1562
     31  C         57.0440   61.3130  108.3900 C.2    43  ALA43       0.2260
     32  O         58.0450   61.5780  107.7220 O.2    43  ALA43      -0.2867
     33  CB        57.2550   62.3140  110.6560 C.3    43  ALA43       0.0290
     34  N         64.6370   69.5010  112.3340 N.3    70  VAL70      -0.1245
     35  CA        64.1000   68.1770  112.0810 C.3    70  VAL70       0.1561
     36  C         64.6140   67.6730  110.7420 C.2    70  VAL70       0.2260
     37  O         64.5080   68.3540  109.7260 O.2    70  VAL70      -0.2867
     38  CB        62.5750   68.2020  112.0820 C.3    70  VAL70       0.0252
     39  CG1       62.0780   69.1200  110.9920 C.3    70  VAL70       0.0019
     40  CG2       62.0410   66.8050  111.9250 C.3    70  VAL70       0.0019
     41  N         60.6870   62.4730  106.9580 N.3    90  MET90      -0.1230
     42  CA        61.5800   63.0350  107.9750 C.3    90  MET90       0.1702
     43  C         61.8490   62.0600  109.1180 C.2    90  MET90       0.2592
     44  O         61.1590   61.0530  109.2710 O.2    90  MET90      -0.2718
     45  CB        60.9850   64.3060  108.5790 C.3    90  MET90       0.0401
     46  CG        60.5580   65.3430  107.5880 C.3    90  MET90       0.0596
     47  SD        59.2470   66.3700  108.2650 S.3    90  MET90      -0.1393
     48  CE        60.2000   67.5520  109.0790 C.3    90  MET90       0.0692
     49  N         62.8460   62.3810  109.9350 N.am   91  GLU91      -0.1966
     50  CA        63.0500   61.6650  111.1790 C.3    91  GLU91       0.1733
     51  C         61.8060   61.8570  112.0170 C.2    91  GLU91       0.2616
     52  O         61.2120   62.9300  112.0310 O.2    91  GLU91      -0.2715
     53  CB        64.2650   62.2050  111.9300 C.3    91  GLU91       0.0429
     54  CG        64.1050   63.6150  112.4610 C.3    91  GLU91       0.1163
     55  CD        65.3650   64.1200  113.1450 C.2    91  GLU91       0.3649
     56  OE1       65.5820   65.3520  113.1920 O.co2  91  GLU91      -0.2457
     57  OE2       66.1430   63.2720  113.6350 O.co2  91  GLU91      -0.2457
     58  N         61.4030   60.8000  112.7060 N.am   92  CYS92      -0.1954
     59  CA        60.2160   60.8570  113.5250 C.3    92  CYS92       0.1843
     60  C         60.5900   61.3890  114.8940 C.2    92  CYS92       0.2625
     61  O         61.5710   60.9400  115.5010 O.2    92  CYS92      -0.2714
     62  CB        59.6050   59.4720  113.6550 C.3    92  CYS92       0.0997
     63  SG        57.9090   59.5070  114.2670 S.3    92  CYS92      -0.0797
     64  N         59.8140   62.3610  115.3670 N.am   93  LEU93      -0.1963
     65  CA        60.0560   62.9700  116.6650 C.3    93  LEU93       0.1728
     66  C         58.8960   62.6410  117.5960 C.2    93  LEU93       0.2616
     67  O         57.8060   63.2110  117.4750 O.2    93  LEU93      -0.2715
     68  CB        60.1820   64.4840  116.5200 C.3    93  LEU93       0.0311
     69  CG        61.1400   65.0460  115.4730 C.3    93  LEU93       0.0022
     70  CD1       60.8780   66.5270  115.3350 C.3    93  LEU93       0.0001
     71  CD2       62.5760   64.7970  115.8670 C.3    93  LEU93       0.0001
     72  N         59.1390   61.7220  118.5280 N.am   94  ASP94      -0.1971
     73  CA        58.0910   61.2120  119.4030 C.3    94  ASP94       0.1709
     74  C         57.9860   61.9730  120.7150 C.2    94  ASP94       0.2293
     75  O         56.9760   61.8860  121.4110 O.2    94  ASP94      -0.2864
     76  CB        58.3330   59.7330  119.6950 C.3    94  ASP94       0.1436
     77  CG        57.4660   58.8270  118.8450 C.2    94  ASP94       0.3671
     78  OD1       56.2360   59.0640  118.7800 O.co2  94  ASP94      -0.2456
     79  OD2       58.0150   57.8790  118.2410 O.co2  94  ASP94      -0.2456
     80  N         55.6450   68.0730  121.9620 N.3    97  GLU97      -0.1245
     81  CA        55.9300   69.5050  121.8540 C.3    97  GLU97       0.1567
     82  C         56.5770   70.0930  123.0950 C.2    97  GLU97       0.2260
     83  O         56.2610   69.7080  124.2190 O.2    97  GLU97      -0.2867
     84  CB        54.6510   70.2810  121.5460 C.3    97  GLU97       0.0388
     85  CG        54.1010   69.9780  120.1820 C.3    97  GLU97       0.1160
     86  CD        52.8490   70.7570  119.8660 C.2    97  GLU97       0.3649
     87  OE1       52.3240   70.5970  118.7340 O.co2  97  GLU97      -0.2457
     88  OE2       52.3930   71.5230  120.7470 O.co2  97  GLU97      -0.2457
     89  N         57.0470   78.7750  116.2790 N.3   140  LYS140     -0.1245
     90  CA        56.0970   78.7550  117.3760 C.3   140  LYS140      0.1561
     91  C         56.1740   77.4050  118.0680 C.2   140  LYS140      0.2260
     92  O         56.7540   76.4630  117.5390 O.2   140  LYS140     -0.2867
     93  CB        54.6830   79.0000  116.8500 C.3   140  LYS140      0.0271
     94  CG        54.2030   77.9990  115.8050 C.3   140  LYS140      0.0035
     95  CD        53.0850   78.6170  114.9510 C.3   140  LYS140      0.0206
     96  CE        52.6900   77.7340  113.7720 C.3   140  LYS140      0.1093
     97  NZ        51.6550   76.7290  114.1460 N.3   140  LYS140     -0.1314
     98  N         54.2510   74.8040  118.6390 N.3   142  GLU142     -0.1231
     99  CA        53.8810   73.6180  117.8840 C.3   142  GLU142      0.1699
    100  C         54.9130   73.2200  116.8230 C.2   142  GLU142      0.2592
    101  O         54.7750   72.1830  116.1900 O.2   142  GLU142     -0.2718
    102  CB        52.5260   73.8280  117.2210 C.3   142  GLU142      0.0402
    103  CG        52.1750   75.2850  117.0040 C.3   142  GLU142      0.1161
    104  CD        51.5700   75.9200  118.2460 C.2   142  GLU142      0.3649
    105  OE1       51.7630   77.1410  118.4590 O.co2 142  GLU142     -0.2457
    106  OE2       50.8970   75.1910  119.0120 O.co2 142  GLU142     -0.2457
    107  N         55.9380   74.0430  116.6160 N.am  143  ASN143     -0.1974
    108  CA        56.9650   73.7390  115.6220 C.3   143  ASN143      0.1688
    109  C         58.2870   73.4230  116.3030 C.2   143  ASN143      0.2292
    110  O         59.3270   73.3340  115.6590 O.2   143  ASN143     -0.2864
    111  CB        57.1360   74.9080  114.6540 C.3   143  ASN143      0.1181
    112  CG        55.9340   75.0940  113.7570 C.2   143  ASN143      0.2629
    113  OD1       55.3150   74.1190  113.3440 O.2   143  ASN143     -0.2716
    114  ND2       55.5880   76.3430  113.4560 N.am  143  ASN143     -0.0877
    115  N         59.4390   70.3150  118.4770 N.3   145  LEU145     -0.1245
    116  CA        59.1260   68.9820  119.0010 C.3   145  LEU145      0.1561
    117  C         60.3470   68.2930  119.5780 C.2   145  LEU145      0.2260
    118  O         61.4690   68.5430  119.1420 O.2   145  LEU145     -0.2867
    119  CB        58.5620   68.0760  117.9120 C.3   145  LEU145      0.0270
    120  CG        57.3890   68.5860  117.0930 C.3   145  LEU145      0.0019
    121  CD1       56.5730   67.3970  116.6150 C.3   145  LEU145      0.0001
    122  CD2       56.5480   69.5330  117.9230 C.3   145  LEU145      0.0001
    123  N         60.6680   72.5510  113.2410 N.3   158  THR158     -0.1203
    124  CA        59.9280   71.8900  112.1710 C.3   158  THR158      0.1994
    125  C         59.1420   72.8920  111.3470 C.2   158  THR158      0.2617
    126  O         59.0820   74.0660  111.6920 O.2   158  THR158     -0.2717
    127  CB        58.9270   70.8890  112.7290 C.3   158  THR158      0.1784
    128  OG1       57.9330   71.5950  113.4830 O.3   158  THR158     -0.2211
    129  CG2       59.6260   69.8760  113.6310 C.3   158  THR158      0.0376
    130  N         58.5450   72.4170  110.2570 N.am  159  ASP159     -0.1973
    131  CA        57.6300   73.2120  109.4310 C.3   159  ASP159      0.1709
    132  C         58.2510   74.4260  108.7430 C.2   159  ASP159      0.2293
    133  O         58.1260   75.5520  109.2210 O.2   159  ASP159     -0.2864
    134  CB        56.4330   73.6570  110.2680 C.3   159  ASP159      0.1436
    135  CG        55.6560   72.4760  110.8450 C.2   159  ASP159      0.3671
    136  OD1       54.6070   72.1050  110.2750 O.co2 159  ASP159     -0.2456
    137  OD2       56.0960   71.9130  111.8690 O.co2 159  ASP159     -0.2456
@<TRIPOS>BOND
     1     1     2    1
     2     2     3    1
     3    41    42    1
     4    18    17    1
     5     3     4    2
     6    46    47    1
     7    46    45    1
     8    32    31    2
     9    42    45    1
    10    42    43    1
    11    47    48    1
    12    31    30    1
    13    17    16    1
    14    17    19    1
    15    16    13    1
    16   132   133    2
    17   132   131    1
    18    43    44    2
    19    43    49   am
    20    23    22    2
    21    15    14    2
    22    12    13    1
    23    12     7   am
    24   131   130    1
    25   131   134    1
    26     5     6    1
    27     6     7    1
    28     6     9    1
    29    37    36    2
    30    22    21    1
    31    13    14    1
    32    30    29    1
    33    30    33    1
    34    14    20   am
    35    49    50    1
    36    11     9    1
    37     7     8    2
    38   130   125   am
    39   134   135    1
    40   136   135   ar
    41     9    10    1
    42    36    35    1
    43    20    21    1
    44   135   137   ar
    45    21    24    1
    46    39    38    1
    47    50    53    1
    48    50    51    1
    49   125   126    2
    50   125   124    1
    51    40    38    1
    52    53    54    1
    53    51    52    2
    54    51    58   am
    55    35    38    1
    56    35    34    1
    57   124   127    1
    58   124   123    1
    59    24    25    1
    60    54    55    1
    61    58    59    1
    62   127   128    1
    63   127   129    1
    64    25    26    1
    65    55    56   ar
    66    55    57   ar
    67   113   112    2
    68   114   112   am
    69    59    62    1
    70    59    60    1
    71    62    63    1
    72   112   111    1
    73    96    97    1
    74    96    95    1
    75    26    27    2
    76    26    28   am
    77   111   108    1
    78    60    64   am
    79    60    61    2
    80    95    94    1
    81    70    69    1
    82    64    65    1
    83    69    71    1
    84    69    68    1
    85   108   109    1
    86   108   107    1
    87   110   109    2
    88    94    93    1
    89   101   100    2
    90    89    90    1
    91    68    65    1
    92   121   120    1
    93   107   100   am
    94    65    66    1
    95   100    99    1
    96    93    90    1
    97   103   102    1
    98   103   104    1
    99   120   119    1
   100   120   122    1
   101   102    99    1
   102    90    91    1
   103    67    66    2
   104    92    91    2
   105    66    72   am
   106    99    98    1
   107   119   116    1
   108    79    77   ar
   109   104   105   ar
   110   104   106   ar
   111   115   116    1
   112    72    73    1
   113    87    86   ar
   114    78    77   ar
   115    77    76    1
   116   116   117    1
   117   118   117    2
   118    73    76    1
   119    73    74    1
   120    86    85    1
   121    86    88   ar
   122    85    84    1
   123    74    75    2
   124    84    81    1
   125    81    80    1
   126    81    82    1
   127    82    83    2
