@<TRIPOS>MOLECULE
tmp/3a2mB02.pdb
 72 69 0 0 0
SMALL
GASTEIGER

@<TRIPOS>ATOM
      1  N        -18.5690  -13.6150   35.5550 N.3    23  ASP23      -0.1225
      2  CA       -18.6340  -12.8760   36.8150 C.3    23  ASP23       0.1805
      3  C        -17.9150  -11.5130   36.7970 C.2    23  ASP23       0.2598
      4  O        -17.8040  -10.8630   37.8440 O.2    23  ASP23      -0.2718
      5  CB       -18.0780  -13.7360   37.9520 C.3    23  ASP23       0.1424
      6  CG       -16.5770  -13.8720   37.9080 C.2    23  ASP23       0.3668
      7  OD1      -15.9720  -13.7360   36.8240 O.co2  23  ASP23      -0.2456
      8  OD2      -16.0000  -14.1360   38.9830 O.co2  23  ASP23      -0.2456
      9  N        -17.4480  -11.0700   35.6260 N.am   24  ALA24      -0.1966
     10  CA       -16.7110   -9.8060   35.5040 C.3    24  ALA24       0.1713
     11  C        -17.6760   -8.7160   35.0430 C.2    24  ALA24       0.2458
     12  O        -18.7420   -9.0450   34.5200 O.2    24  ALA24      -0.2730
     13  CB       -15.5930   -9.9760   34.4920 C.3    24  ALA24       0.0333
     14  N        -17.3050   -7.4220   35.1750 N.am   25  PRO25      -0.2727
     15  CA       -18.2100   -6.4200   34.6200 C.3    25  PRO25       0.1402
     16  C        -18.4250   -6.5940   33.1390 C.2    25  PRO25       0.2269
     17  O        -17.5210   -7.0030   32.4340 O.2    25  PRO25      -0.2865
     18  CB       -17.5000   -5.0810   34.8860 C.3    25  PRO25       0.0296
     19  CG       -16.1110   -5.4360   35.1580 C.3    25  PRO25       0.0237
     20  CD       -16.0980   -6.8190   35.7460 C.3    25  PRO25       0.0939
     21  N         -9.6700  -10.5500   29.4610 N.3    49  PRO49      -0.2102
     22  CA        -9.1070  -10.9390   30.7680 C.3    49  PRO49       0.1504
     23  C         -9.6570  -10.2060   31.9520 C.2    49  PRO49       0.2575
     24  O         -9.5290  -10.7290   33.0700 O.2    49  PRO49      -0.2718
     25  CB        -7.6140  -10.6370   30.6140 C.3    49  PRO49       0.0282
     26  CG        -7.3690  -10.7160   29.1520 C.3    49  PRO49       0.0208
     27  CD        -8.6140  -10.0650   28.5670 C.3    49  PRO49       0.0893
     28  N        -10.2420   -9.0180   31.7500 N.am   50  VAL50      -0.1980
     29  CA       -10.7810   -8.2070   32.8580 C.3    50  VAL50       0.1595
     30  C        -12.2910   -7.9770   32.8110 C.2    50  VAL50       0.2287
     31  O        -12.8760   -7.3260   33.7230 O.2    50  VAL50      -0.2864
     32  CB       -10.0510   -6.8490   33.0300 C.3    50  VAL50       0.0276
     33  CG1       -8.5590   -7.0540   33.1590 C.3    50  VAL50       0.0022
     34  CG2      -10.3590   -5.8590   31.9110 C.3    50  VAL50       0.0022
     35  N        -21.3840    2.1170   33.4450 N.3   116  ARG116     -0.1245
     36  CA       -20.2250    1.9990   34.3410 C.3   116  ARG116      0.1563
     37  C        -19.0970    2.9290   33.9310 C.2   116  ARG116      0.2260
     38  O        -18.2680    3.3530   34.7560 O.2   116  ARG116     -0.2867
     39  CB       -19.6980    0.5450   34.4050 C.3   116  ARG116      0.0307
     40  CG       -20.7150   -0.4810   34.8620 C.3   116  ARG116      0.0489
     41  CD       -20.1200   -1.8830   34.9410 C.3   116  ARG116      0.2205
     42  NE       -19.3380   -2.1320   36.1570 N.pl3 116  ARG116     -0.0865
     43  CZ       -19.8670   -2.5240   37.3220 C.cat 116  ARG116      0.5346
     44  NH1      -21.1810   -2.6970   37.4550 N.pl3 116  ARG116      0.1354
     45  NH2      -19.0920   -2.7230   38.3800 N.pl3 116  ARG116      0.1354
     46  N        -10.6370   -0.1560   33.0530 N.3   293  ILE293     -0.1231
     47  CA       -11.6330   -0.9410   33.7790 C.3   293  ILE293      0.1692
     48  C        -11.0460   -1.5690   35.0530 C.2   293  ILE293      0.2591
     49  O        -11.6740   -1.5600   36.1350 O.2   293  ILE293     -0.2718
     50  CB       -12.2630   -2.0340   32.8570 C.3   293  ILE293      0.0266
     51  CG1      -13.0990   -1.3810   31.7440 C.3   293  ILE293      0.0019
     52  CG2      -13.0710   -3.0280   33.6870 C.3   293  ILE293      0.0020
     53  CD1      -13.4140   -2.3170   30.6410 C.3   293  ILE293      0.0001
     54  N         -9.8400   -2.1080   34.9410 N.am  294  ALA294     -0.1980
     55  CA        -9.1860   -2.7570   36.0730 C.3   294  ALA294      0.1597
     56  C         -8.9940   -1.7470   37.2230 C.2   294  ALA294      0.2287
     57  O         -9.2020   -2.0860   38.3990 O.2   294  ALA294     -0.2864
     58  CB        -7.8380   -3.3500   35.6390 C.3   294  ALA294      0.0319
     59  N        -12.4900   -0.6790   38.7960 N.3   297  GLU297     -0.1231
     60  CA       -13.0650   -1.7620   39.5900 C.3   297  GLU297      0.1699
     61  C        -12.2560   -2.1000   40.8410 C.2   297  GLU297      0.2592
     62  O        -12.7760   -2.7610   41.7640 O.2   297  GLU297     -0.2718
     63  CB       -13.2720   -3.0130   38.7370 C.3   297  GLU297      0.0402
     64  CG       -14.2250   -2.8040   37.5360 C.3   297  GLU297      0.1161
     65  CD       -15.6670   -2.5200   37.9240 C.2   297  GLU297      0.3649
     66  OE1      -16.0870   -2.9720   39.0160 O.co2 297  GLU297     -0.2457
     67  OE2      -16.3730   -1.8250   37.1480 O.co2 297  GLU297     -0.2457
     68  N        -11.0070   -1.6480   40.8750 N.am  298  ALA298     -0.1980
     69  CA       -10.1610   -1.8210   42.0400 C.3   298  ALA298      0.1597
     70  C        -10.5260   -0.8510   43.1690 C.2   298  ALA298      0.2287
     71  O        -10.1190   -1.0750   44.3150 O.2   298  ALA298     -0.2864
     72  CB        -8.6780   -1.6570   41.6600 C.3   298  ALA298      0.0319
@<TRIPOS>BOND
     1    27    26    1
     2    27    21    1
     3    26    25    1
     4    21    22    1
     5    25    22    1
     6    53    51    1
     7    22    23    1
     8    51    50    1
     9    28    23   am
    10    28    29    1
    11    34    32    1
    12    23    24    2
    13    17    16    2
    14    30    29    1
    15    30    31    2
    16    50    52    1
    17    50    47    1
    18    29    32    1
    19    32    33    1
    20    46    47    1
    21    16    15    1
    22    35    36    1
    23    47    48    1
    24    37    36    1
    25    37    38    2
    26    36    39    1
    27    39    40    1
    28    13    10    1
    29    12    11    2
    30    15    18    1
    31    15    14    1
    32    40    41    1
    33    18    19    1
    34    41    42    1
    35    54    48   am
    36    54    55    1
    37    11    14   am
    38    11    10    1
    39    48    49    2
    40    19    20    1
    41    14    20    1
    42    10     9    1
    43     1     2    1
    44     9     3   am
    45    58    55    1
    46    55    56    1
    47    42    43    2
    48     3     2    1
    49     3     4    2
    50     2     5    1
    51     7     6   ar
    52    67    65   ar
    53    56    57    2
    54    43    44    1
    55    43    45    1
    56    64    65    1
    57    64    63    1
    58     6     5    1
    59     6     8   ar
    60    65    66   ar
    61    63    60    1
    62    59    60    1
    63    60    61    1
    64    61    68   am
    65    61    62    2
    66    68    69    1
    67    72    69    1
    68    69    70    1
    69    70    71    2
