@<TRIPOS>MOLECULE
tmp/3a2oB00.pdb
 111 105 0 0 0
SMALL
GASTEIGER

@<TRIPOS>ATOM
      1  N         17.4290   25.9910   28.4270 N.3    23  LEU23      -0.1245
      2  CA        17.0310   26.9100   27.3700 C.3    23  LEU23       0.1561
      3  C         15.5490   26.8280   27.1240 C.2    23  LEU23       0.2260
      4  O         15.0330   25.7400   26.8460 O.2    23  LEU23      -0.2867
      5  CB        17.8230   26.5080   26.1200 C.3    23  LEU23       0.0270
      6  CG        18.3980   27.4040   25.0460 C.3    23  LEU23       0.0019
      7  CD1       18.3900   26.6640   23.6980 C.3    23  LEU23       0.0001
      8  CD2       17.7620   28.7680   24.9640 C.3    23  LEU23       0.0001
      9  N         12.7590   26.8310   24.7710 N.3    25  ASP25      -0.1239
     10  CA        12.9120   26.4840   23.3550 C.3    25  ASP25       0.1674
     11  C         11.5520   26.2170   22.7060 C.2    25  ASP25       0.2266
     12  O         11.0100   25.1170   22.7570 O.2    25  ASP25      -0.2867
     13  CB        13.8180   25.2730   23.2420 C.3    25  ASP25       0.1410
     14  CG        14.2210   24.8920   21.8580 C.2    25  ASP25       0.3668
     15  OD1       13.5590   25.4440   20.9270 O.co2  25  ASP25      -0.2456
     16  OD2       15.1800   24.1090   21.6610 O.co2  25  ASP25      -0.2456
     17  N         10.9630   25.9010   19.6530 N.3    27  GLY27      -0.1210
     18  CA        11.1200   24.9820   18.5550 C.3    27  GLY27       0.1956
     19  C         11.1270   23.5180   18.9290 C.2    27  GLY27       0.2612
     20  O         11.1930   22.6330   18.0520 O.2    27  GLY27      -0.2717
     21  N         11.0960   23.2170   20.2220 N.am   28  ALA28      -0.1965
     22  CA        11.1490   21.8560   20.7160 C.3    28  ALA28       0.1728
     23  C          9.7520   21.4630   21.1720 C.2    28  ALA28       0.2616
     24  O          9.1520   22.1060   22.0270 O.2    28  ALA28      -0.2715
     25  CB        12.1190   21.7670   21.8820 C.3    28  ALA28       0.0334
     26  N          9.2350   20.3290   20.6620 N.am   29  ASP29      -0.1957
     27  CA         7.9290   19.8730   21.1090 C.3    29  ASP29       0.1840
     28  C          8.0000   19.3980   22.5570 C.2    29  ASP29       0.2622
     29  O          7.0330   19.5570   23.3270 O.2    29  ASP29      -0.2715
     30  CB         7.4340   18.7130   20.2570 C.3    29  ASP29       0.1450
     31  CG         7.1940   18.9860   18.7970 C.2    29  ASP29       0.3671
     32  OD1        7.2380   20.1460   18.3590 O.co2  29  ASP29      -0.2456
     33  OD2        6.8610   17.9860   18.1080 O.co2  29  ASP29      -0.2456
     34  N          9.1160   18.7880   22.9100 N.am   30  ASP30      -0.1971
     35  CA         9.3550   18.0700   24.1490 C.3    30  ASP30       0.1709
     36  C         10.5630   18.6960   24.8690 C.2    30  ASP30       0.2293
     37  O         11.3290   19.4300   24.3010 O.2    30  ASP30      -0.2864
     38  CB         9.6340   16.5840   23.8740 C.3    30  ASP30       0.1436
     39  CG         8.5200   15.8170   23.1830 C.2    30  ASP30       0.3671
     40  OD1        8.8610   14.8780   22.4420 O.co2  30  ASP30      -0.2456
     41  OD2        7.3740   16.1710   23.3720 O.co2  30  ASP30      -0.2456
     42  N         14.0920   18.0530   26.8120 N.3    32  VAL32      -0.1245
     43  CA        15.2270   17.1420   26.7200 C.3    32  VAL32       0.1561
     44  C         16.3170   17.6300   27.6880 C.2    32  VAL32       0.2260
     45  O         16.7490   18.7850   27.6160 O.2    32  VAL32      -0.2867
     46  CB        15.7960   16.9850   25.2980 C.3    32  VAL32       0.0252
     47  CG1       16.6390   15.7110   25.2560 C.3    32  VAL32       0.0019
     48  CG2       14.7110   16.9040   24.2310 C.3    32  VAL32       0.0019
     49  N         12.0930    6.8100   23.0400 N.3    45  LYS45      -0.1182
     50  CA        11.6400    7.7530   22.0360 C.3    45  LYS45       0.1909
     51  C         12.8590    8.1270   21.1900 C.2    45  LYS45       0.2634
     52  O         14.0050    8.0940   21.6530 O.2    45  LYS45      -0.2714
     53  CB        10.9640    8.9970   22.6370 C.2    45  LYS45      -0.0028
     54  CG        10.1210    9.8310   21.7070 C.2    45  LYS45      -0.0272
     55  CD         9.3860   10.9630   22.3060 C.3    45  LYS45       0.0462
     56  CE         8.3720   11.5360   21.3220 C.3    45  LYS45       0.1140
     57  NZ         7.4520   12.5320   21.9600 N.3    45  LYS45      -0.1310
     58  N         12.5800    8.4760   19.9490 N.am   46  MET46      -0.1963
     59  CA        13.5480    9.0370   19.0070 C.3    46  MET46       0.1736
     60  C         13.1040   10.4840   18.7480 C.2    46  MET46       0.2616
     61  O         11.9190   10.7150   18.5140 O.2    46  MET46      -0.2715
     62  CB        13.6030    8.2150   17.6980 C.3    46  MET46       0.0427
     63  CG        14.4500    6.9650   18.0210 C.3    46  MET46       0.0599
     64  SD        15.2280    6.3420   16.5550 S.3    46  MET46      -0.1393
     65  CE        14.6900    7.3540   15.2180 C.3    46  MET46       0.0692
     66  N         14.0610   11.3940   18.7360 N.am   47  ILE47      -0.1963
     67  CA        13.6770   12.7720   18.3950 C.3    47  ILE47       0.1727
     68  C         14.6590   13.2510   17.3530 C.2    47  ILE47       0.2617
     69  O         15.8550   12.9730   17.3520 O.2    47  ILE47      -0.2715
     70  CB        13.5300   13.6470   19.6720 C.3    47  ILE47       0.0290
     71  CG1       14.8800   13.6560   20.3370 C.3    47  ILE47       0.0022
     72  CG2       12.3260   13.2870   20.6020 C.3    47  ILE47       0.0023
     73  CD1       14.9900   14.6270   21.5380 C.3    47  ILE47       0.0001
     74  N         14.1190   14.0080   16.3870 N.am   48  GLY48      -0.1940
     75  CA        14.9180   14.5620   15.2940 C.3    48  GLY48       0.2014
     76  C         15.1370   16.0610   15.5500 C.2    48  GLY48       0.2639
     77  O         14.2330   16.8300   15.8040 O.2    48  GLY48      -0.2714
     78  N         16.4180   16.4170   15.4060 N.am   49  GLY49      -0.1939
     79  CA        16.8730   17.7610   15.5060 C.3    49  GLY49       0.2014
     80  C         17.5700   18.1910   14.2070 C.2    49  GLY49       0.2638
     81  O         17.4470   17.5730   13.1590 O.2    49  GLY49      -0.2714
     82  N         18.3200   19.2780   14.3170 N.am   50  ILE50      -0.1977
     83  CA        18.9240   19.8900   13.1330 C.3    50  ILE50       0.1596
     84  C         19.8680   18.9210   12.4040 C.2    50  ILE50       0.2287
     85  O         19.9560   19.0030   11.1800 O.2    50  ILE50      -0.2864
     86  CB        19.6300   21.2090   13.5170 C.3    50  ILE50       0.0276
     87  CG1       19.9790   22.0880   12.3200 C.3    50  ILE50       0.0022
     88  CG2       20.8520   20.9900   14.3880 C.3    50  ILE50       0.0022
     89  CD1       18.7930   22.5490   11.5120 C.3    50  ILE50       0.0001
     90  N         22.6550   18.5240   23.2740 N.3    81  PRO81      -0.2102
     91  CA        23.7620   19.4300   23.4580 C.3    81  PRO81       0.1504
     92  C         23.5870   20.4350   24.5840 C.2    81  PRO81       0.2575
     93  O         24.5900   20.9860   25.0500 O.2    81  PRO81      -0.2718
     94  CB        23.8670   20.2200   22.1180 C.3    81  PRO81       0.0282
     95  CG        22.4850   20.2230   21.5750 C.3    81  PRO81       0.0208
     96  CD        21.9030   18.8590   22.0340 C.3    81  PRO81       0.0893
     97  N         22.3320   20.6790   24.9360 N.am   82  VAL82      -0.1980
     98  CA        22.0360   21.5940   26.0440 C.3    82  VAL82       0.1595
     99  C         20.6830   21.1040   26.5740 C.2    82  VAL82       0.2287
    100  O         19.9210   20.3950   25.9060 O.2    82  VAL82      -0.2864
    101  CB        21.9810   23.0740   25.6420 C.3    82  VAL82       0.0276
    102  CG1       20.8600   23.2650   24.5680 C.3    82  VAL82       0.0022
    103  CG2       21.7620   24.0840   26.7480 C.3    82  VAL82       0.0022
    104  N         16.9800   21.5200   27.2760 N.3    84  ILE84      -0.1245
    105  CA        15.9380   22.2000   26.5070 C.3    84  ILE84       0.1561
    106  C         14.5820   22.0710   27.1920 C.2    84  ILE84       0.2260
    107  O         14.1440   20.9420   27.4470 O.2    84  ILE84      -0.2867
    108  CB        15.8880   21.5830   25.0980 C.3    84  ILE84       0.0252
    109  CG1       17.1660   21.9610   24.3360 C.3    84  ILE84       0.0019
    110  CG2       14.6310   21.9720   24.3600 C.3    84  ILE84       0.0019
    111  CD1       17.3820   21.1740   23.0830 C.3    84  ILE84       0.0001
@<TRIPOS>BOND
     1    85    84    2
     2    89    87    1
     3    87    86    1
     4    84    83    1
     5    83    86    1
     6    83    82    1
     7    81    80    2
     8    86    88    1
     9    80    82   am
    10    80    79    1
    11    65    64    1
    12    75    76    1
    13    75    74    1
    14    78    79    1
    15    78    76   am
    16    76    77    2
    17    74    68   am
    18    64    63    1
    19    69    68    2
    20    68    67    1
    21    62    63    1
    22    62    59    1
    23    20    19    2
    24    33    31   ar
    25    32    31   ar
    26    67    66    1
    27    67    70    1
    28    61    60    2
    29    18    19    1
    30    18    17    1
    31    66    60   am
    32    60    59    1
    33    31    30    1
    34    19    21   am
    35    59    58    1
    36    70    71    1
    37    70    72    1
    38    58    51   am
    39    21    22    1
    40    30    27    1
    41    71    73    1
    42    26    27    1
    43    26    23   am
    44    22    23    1
    45    22    25    1
    46    15    14   ar
    47    27    28    1
    48    23    24    2
    49    51    52    2
    50    51    50    1
    51    56    57    1
    52    56    55    1
    53    95    96    1
    54    95    94    1
    55    16    14   ar
    56    54    55    1
    57    54    53    2
    58    14    13    1
    59    96    90    1
    60    50    53    1
    61    50    49    1
    62    94    91    1
    63    40    39   ar
    64    28    34   am
    65    28    29    2
    66    11    12    2
    67    11    10    1
    68    34    35    1
    69   111   109    1
    70    39    41   ar
    71    39    38    1
    72    13    10    1
    73    90    91    1
    74    10     9    1
    75    91    92    1
    76     7     6    1
    77    38    35    1
    78    35    36    1
    79    48    46    1
    80    37    36    2
    81   109   108    1
    82   110   108    1
    83   102   101    1
    84    92    97   am
    85    92    93    2
    86    97    98    1
    87     8     6    1
    88     6     5    1
    89   108   105    1
    90    47    46    1
    91    46    43    1
    92   101    98    1
    93   101   103    1
    94   100    99    2
    95    98    99    1
    96     5     2    1
    97   105   106    1
    98   105   104    1
    99    43    42    1
   100    43    44    1
   101     4     3    2
   102     3     2    1
   103   106   107    2
   104     2     1    1
   105    45    44    2
