@<TRIPOS>MOLECULE
tmp/3a2qA01.pdb
 127 118 0 0 0
SMALL
GASTEIGER

@<TRIPOS>ATOM
      1  N         35.7600   36.5680   25.9580 N.3   121  GLY121     -0.1210
      2  CA        36.8970   36.9800   25.1430 C.3   121  GLY121      0.1956
      3  C         37.9980   37.6660   25.9290 C.2   121  GLY121      0.2612
      4  O         38.7550   38.4650   25.3820 O.2   121  GLY121     -0.2717
      5  N         38.1150   37.3250   27.2070 N.am  122  ASN122     -0.1960
      6  CA        39.0930   37.9620   28.0720 C.3   122  ASN122      0.1819
      7  C         40.5130   37.3850   28.1040 C.2   122  ASN122      0.2621
      8  O         41.2370   37.6000   29.0730 O.2   122  ASN122     -0.2715
      9  CB        38.5440   38.0200   29.5010 C.3   122  ASN122      0.1195
     10  CG        39.1600   39.1400   30.3140 C.2   122  ASN122      0.2630
     11  OD1       39.4920   38.9620   31.4870 O.2   122  ASN122     -0.2716
     12  ND2       39.3090   40.3080   29.6970 N.am  122  ASN122     -0.0877
     13  N         40.9220   36.6700   27.0610 N.am  123  GLN123     -0.1963
     14  CA        42.2780   36.1070   27.0260 C.3   123  GLN123      0.1733
     15  C         42.7840   36.0240   25.5940 C.2   123  GLN123      0.2616
     16  O         41.9960   36.1140   24.6550 O.2   123  GLN123     -0.2715
     17  CB        42.3030   34.6900   27.6210 C.3   123  GLN123      0.0408
     18  CG        41.8990   34.5520   29.0930 C.3   123  GLN123      0.0908
     19  CD        42.8330   35.2760   30.0510 C.2   123  GLN123      0.2608
     20  OE1       44.0210   35.4370   29.7790 O.2   123  GLN123     -0.2717
     21  NE2       42.2970   35.7010   31.1910 N.am  123  GLN123     -0.0878
     22  N         44.0980   35.8600   25.4280 N.am  124  VAL124     -0.1977
     23  CA        44.6760   35.7130   24.0950 C.3   124  VAL124      0.1596
     24  C         45.0360   34.2510   23.8140 C.2   124  VAL124      0.2287
     25  O         45.9140   33.9330   23.0090 O.2   124  VAL124     -0.2864
     26  CB        45.9060   36.6280   23.8650 C.3   124  VAL124      0.0276
     27  CG1       45.4330   38.0420   23.5630 C.3   124  VAL124      0.0022
     28  CG2       46.8250   36.6120   25.0740 C.3   124  VAL124      0.0022
     29  N         41.1280   36.0120   21.2490 N.3   147  SER147     -0.1217
     30  CA        40.0540   35.1680   21.7800 C.3   147  SER147      0.1889
     31  C         39.2660   34.3690   20.7390 C.2   147  SER147      0.2288
     32  O         38.5340   33.4460   21.0920 O.2   147  SER147     -0.2866
     33  CB        39.0890   36.0260   22.6090 C.3   147  SER147      0.2089
     34  OG        38.6060   37.1330   21.8580 O.3   147  SER147     -0.2183
     35  N         35.9170   38.3780   16.5840 N.3   166  ASN166     -0.1240
     36  CA        36.0220   39.8030   16.8640 C.3   166  ASN166      0.1653
     37  C         37.4230   40.0760   17.3610 C.2   166  ASN166      0.2266
     38  O         38.1570   39.1470   17.7210 O.2   166  ASN166     -0.2867
     39  CB        34.9510   40.3170   17.8320 C.3   166  ASN166      0.1155
     40  CG        34.4440   39.2590   18.7660 C.2   166  ASN166      0.2627
     41  OD1       35.1650   38.7990   19.6500 O.2   166  ASN166     -0.2716
     42  ND2       33.1820   38.8660   18.5830 N.am  166  ASN166     -0.0877
     43  N         39.5900   42.9770   19.7750 N.3   168  ALA168     -0.1231
     44  CA        39.6760   44.1560   20.6360 C.3   168  ALA168      0.1694
     45  C         41.1280   44.4980   20.9710 C.2   168  ALA168      0.2592
     46  O         41.4440   45.6420   21.3080 O.2   168  ALA168     -0.2718
     47  CB        38.8860   43.9290   21.9250 C.3   168  ALA168      0.0304
     48  N         42.0000   43.4960   20.8940 N.am  169  ALA169     -0.1966
     49  CA        43.4240   43.6860   21.1610 C.3   169  ALA169      0.1728
     50  C         44.2370   42.7870   20.2270 C.2   169  ALA169      0.2617
     51  O         45.4500   42.6540   20.3790 O.2   169  ALA169     -0.2715
     52  CB        43.7420   43.3600   22.6250 C.3   169  ALA169      0.0334
     53  N         43.5470   42.1850   19.2570 N.am  170  GLY170     -0.1940
     54  CA        44.1780   41.3000   18.2890 C.3   170  GLY170      0.2014
     55  C         43.4840   39.9450   18.1840 C.2   170  GLY170      0.2638
     56  O         43.9920   39.0370   17.5270 O.2   170  GLY170     -0.2714
     57  N         42.3040   39.8230   18.7950 N.am  171  ALA171     -0.1977
     58  CA        41.5470   38.5630   18.8300 C.3   171  ALA171      0.1597
     59  C         41.2120   37.8530   17.5130 C.2   171  ALA171      0.2287
     60  O         40.7390   36.7180   17.5310 O.2   171  ALA171     -0.2864
     61  CB        40.2760   38.7510   19.6540 C.3   171  ALA171      0.0319
     62  N         33.8430   48.2820   23.7000 N.3   203  VAL203     -0.1245
     63  CA        35.0790   48.6890   24.3480 C.3   203  VAL203      0.1561
     64  C         35.5260   50.0420   23.8050 C.2   203  VAL203      0.2260
     65  O         36.6710   50.2200   23.3840 O.2   203  VAL203     -0.2867
     66  CB        36.2040   47.6380   24.1510 C.3   203  VAL203      0.0252
     67  CG1       37.3240   47.8910   25.1560 C.3   203  VAL203      0.0019
     68  CG2       35.6500   46.2250   24.3260 C.3   203  VAL203      0.0019
     69  N         43.4770   51.5960   28.6960 N.3   309  TYR309     -0.1241
     70  CA        42.6470   50.6200   28.0150 C.3   309  TYR309      0.1605
     71  C         42.1760   49.5520   29.0050 C.2   309  TYR309      0.2264
     72  O         41.0270   49.1080   28.9660 O.2   309  TYR309     -0.2867
     73  CB        43.4450   49.9820   26.8760 C.3   309  TYR309      0.0534
     74  CG        42.6410   49.0680   25.9850 C.ar  309  TYR309     -0.0201
     75  CD1       41.4480   49.4990   25.4020 C.ar  309  TYR309     -0.0009
     76  CD2       43.0810   47.7770   25.7060 C.ar  309  TYR309     -0.0009
     77  CE1       40.7140   48.6620   24.5640 C.ar  309  TYR309      0.0417
     78  CE2       42.3570   46.9350   24.8680 C.ar  309  TYR309      0.0417
     79  CZ        41.1770   47.3810   24.3030 C.ar  309  TYR309      0.1957
     80  OH        40.4570   46.5390   23.4910 O.3   309  TYR309     -0.2866
     81  N         38.4810   48.2210   30.0250 N.3   313  CYS313     -0.1235
     82  CA        38.1700   46.7990   29.9500 C.3   313  CYS313      0.1677
     83  C         37.5640   46.2840   31.2610 C.2   313  CYS313      0.2270
     84  O         36.6740   45.4330   31.2390 O.2   313  CYS313     -0.2867
     85  CB        39.4240   45.9970   29.5940 C.3   313  CYS313      0.0956
     86  SG        39.8820   46.0950   27.8390 S.3   313  CYS313     -0.0801
     87  N         33.8800   44.3670   31.1000 N.3   317  ILE317     -0.1245
     88  CA        33.6130   43.0030   31.5380 C.3   317  ILE317      0.1561
     89  C         32.6160   43.0220   32.6930 C.2   317  ILE317      0.2260
     90  O         31.6930   42.2140   32.7420 O.2   317  ILE317     -0.2867
     91  CB        34.9050   42.2850   31.9880 C.3   317  ILE317      0.0252
     92  CG1       35.8300   42.0880   30.7830 C.3   317  ILE317      0.0019
     93  CG2       34.5600   40.9240   32.6010 C.3   317  ILE317      0.0019
     94  CD1       35.2150   41.2430   29.6830 C.3   317  ILE317      0.0001
     95  N         44.8530   43.7140   33.5650 N.3   408  GLN408     -0.1245
     96  CA        44.3070   42.5800   32.8200 C.3   408  GLN408      0.1566
     97  C         45.3390   41.4500   32.7390 C.2   408  GLN408      0.2260
     98  O         46.5270   41.6990   32.5270 O.2   408  GLN408     -0.2867
     99  CB        43.9440   43.0340   31.4010 C.3   408  GLN408      0.0367
    100  CG        42.7510   42.3350   30.7790 C.3   408  GLN408      0.0905
    101  CD        41.4370   42.7570   31.4030 C.2   408  GLN408      0.2608
    102  OE1       40.3700   42.2790   31.0170 O.2   408  GLN408     -0.2717
    103  NE2       41.5070   43.6600   32.3730 N.am  408  GLN408     -0.0878
    104  N         45.6410   39.3530   30.4350 N.3   410  ALA410     -0.1231
    105  CA        46.1040   39.2720   29.0550 C.3   410  ALA410      0.1694
    106  C         47.1480   40.3390   28.7420 C.2   410  ALA410      0.2592
    107  O         47.8110   40.2800   27.7080 O.2   410  ALA410     -0.2718
    108  CB        44.9210   39.4030   28.0990 C.3   410  ALA410      0.0304
    109  N         47.2950   41.3120   29.6340 N.am  411  PHE411     -0.1976
    110  CA        48.2590   42.3870   29.4280 C.3   411  PHE411      0.1639
    111  C         49.5610   42.1970   30.1980 C.2   411  PHE411      0.2290
    112  O         50.3340   43.1380   30.3400 O.2   411  PHE411     -0.2864
    113  CB        47.6510   43.7410   29.8130 C.3   411  PHE411      0.0560
    114  CG        46.4620   44.1430   28.9760 C.ar  411  PHE411     -0.0200
    115  CD1       46.2030   43.5250   27.7570 C.ar  411  PHE411     -0.0042
    116  CD2       45.6200   45.1690   29.3950 C.ar  411  PHE411     -0.0042
    117  CE1       45.1260   43.9230   26.9690 C.ar  411  PHE411     -0.0003
    118  CE2       44.5360   45.5750   28.6070 C.ar  411  PHE411     -0.0003
    119  CZ        44.2930   44.9490   27.3930 C.ar  411  PHE411     -0.0000
    120  N         49.8390   40.0300   22.0790 N.3   419  LEU419     -0.1245
    121  CA        49.0810   41.1710   21.5630 C.3   419  LEU419      0.1561
    122  C         49.7710   42.5340   21.4600 C.2   419  LEU419      0.2260
    123  O         49.1440   43.5050   21.0340 O.2   419  LEU419     -0.2867
    124  CB        47.7890   41.3210   22.3850 C.3   419  LEU419      0.0270
    125  CG        47.9160   41.4260   23.9130 C.3   419  LEU419      0.0019
    126  CD1       48.5370   42.7600   24.2990 C.3   419  LEU419      0.0001
    127  CD2       46.5350   41.2960   24.5630 C.3   419  LEU419      0.0001
@<TRIPOS>BOND
     1    35    36    1
     2    36    37    1
     3    36    39    1
     4    37    38    2
     5    59    60    2
     6    59    58    1
     7    56    55    2
     8    39    40    1
     9    55    54    1
    10    55    57   am
    11    54    53    1
    12    42    40   am
    13    40    41    2
    14    57    58    1
    15    58    61    1
    16    53    50   am
    17    43    44    1
    18    50    51    2
    19    50    49    1
    20    44    45    1
    21    44    47    1
    22    31    32    2
    23    31    30    1
    24    48    45   am
    25    48    49    1
    26    45    46    2
    27   123   122    2
    28    49    52    1
    29    29    30    1
    30   122   121    1
    31   121   120    1
    32   121   124    1
    33    30    33    1
    34    34    33    1
    35   124   125    1
    36    25    24    2
    37    65    64    2
    38    80    79    1
    39    27    26    1
    40    62    63    1
    41    64    63    1
    42    24    23    1
    43    26    23    1
    44    26    28    1
    45   125   126    1
    46   125   127    1
    47    23    22    1
    48    66    68    1
    49    66    63    1
    50    66    67    1
    51    79    77   ar
    52    79    78   ar
    53    77    75   ar
    54    16    15    2
    55    78    76   ar
    56     2     3    1
    57     2     1    1
    58     4     3    2
    59    75    74   ar
    60    22    15   am
    61    15    14    1
    62    76    74   ar
    63     3     5   am
    64    74    73    1
    65    73    70    1
    66   117   119   ar
    67   117   115   ar
    68    14    13    1
    69    14    17    1
    70    13     7   am
    71     5     6    1
    72   119   118   ar
    73    17    18    1
    74   107   106    2
    75   115   114   ar
    76    86    85    1
    77    70    69    1
    78    70    71    1
    79     6     7    1
    80     6     9    1
    81   108   105    1
    82     7     8    2
    83   118   116   ar
    84   106   105    1
    85   106   109   am
    86    72    71    2
    87   114   116   ar
    88   114   113    1
    89   105   104    1
    90    18    19    1
    91   110   109    1
    92   110   113    1
    93   110   111    1
    94     9    10    1
    95    85    82    1
    96    94    92    1
    97    12    10   am
    98    20    19    2
    99    82    81    1
   100    82    83    1
   101    19    21   am
   102   111   112    2
   103    10    11    2
   104   100    99    1
   105   100   101    1
   106    92    91    1
   107   102   101    2
   108    87    88    1
   109    84    83    2
   110    99    96    1
   111   101   103   am
   112    88    91    1
   113    88    89    1
   114    91    93    1
   115    98    97    2
   116    89    90    2
   117    97    96    1
   118    96    95    1
