@<TRIPOS>MOLECULE
tmp/3a2sA00.pdb
 112 105 0 0 0
SMALL
GASTEIGER

@<TRIPOS>ATOM
      1  N         31.7310   19.8710    5.0100 N.3     6  GLY6       -0.1210
      2  CA        31.1430   20.1960    6.2950 C.3     6  GLY6        0.1956
      3  C         29.6910   20.6160    6.1830 C.2     6  GLY6        0.2612
      4  O         29.1070   20.6280    5.0900 O.2     6  GLY6       -0.2717
      5  N         29.1190   20.9650    7.3320 N.am    7  THR7       -0.1952
      6  CA        27.7650   21.4850    7.4100 C.3     7  THR7        0.1897
      7  C         27.7380   22.6020    8.4280 C.2     7  THR7        0.2313
      8  O         28.2130   22.4200    9.5580 O.2     7  THR7       -0.2863
      9  CB        26.7710   20.3840    7.8500 C.3     7  THR7        0.1794
     10  OG1       26.9220   19.2620    6.9930 O.3     7  THR7       -0.2208
     11  CG2       25.3270   20.8810    7.7560 C.3     7  THR7        0.0378
     12  N         25.0220   24.7740   10.4470 N.3     9  LYS9       -0.1245
     13  CA        23.6120   24.6640   10.7940 C.3     9  LYS9        0.1561
     14  C         23.3340   25.3040   12.1350 C.2     9  LYS9        0.2260
     15  O         24.0890   25.1150   13.0920 O.2     9  LYS9       -0.2867
     16  CB        23.1270   23.1990   10.7710 C.3     9  LYS9        0.0271
     17  CG        24.0280   22.1700   11.4460 C.3     9  LYS9        0.0035
     18  CD        23.3260   20.8070   11.5400 C.3     9  LYS9        0.0206
     19  CE        24.3280   19.7360   11.9270 C.3     9  LYS9        0.1093
     20  NZ        23.8290   18.3570   11.7940 N.3     9  LYS9       -0.1314
     21  N         30.0900   21.5280   11.6640 N.3    42  LYS42      -0.1245
     22  CA        31.2390   20.6470   11.6050 C.3    42  LYS42       0.1561
     23  C         32.0000   20.9440   10.3280 C.2    42  LYS42       0.2260
     24  O         31.4340   21.4110    9.3330 O.2    42  LYS42      -0.2867
     25  CB        30.7890   19.1610   11.6180 C.3    42  LYS42       0.0271
     26  CG        29.5870   18.8620   10.6880 C.3    42  LYS42       0.0035
     27  CD        29.1250   17.3820   10.6950 C.3    42  LYS42       0.0206
     28  CE        27.8240   17.2170    9.8800 C.3    42  LYS42       0.1093
     29  NZ        27.3260   15.8180    9.7940 N.3    42  LYS42      -0.1314
     30  N         21.2000    7.2380   12.0630 N.3   104  ASP104     -0.1239
     31  CA        20.7610    7.9300   10.8430 C.3   104  ASP104      0.1674
     32  C         19.3390    7.5750   10.3790 C.2   104  ASP104      0.2266
     33  O         18.6520    8.4090    9.8090 O.2   104  ASP104     -0.2867
     34  CB        21.7520    7.6510    9.7140 C.3   104  ASP104      0.1410
     35  CG        23.1280    8.2640    9.9810 C.2   104  ASP104      0.3668
     36  OD1       23.2720    9.0360   10.9610 O.co2 104  ASP104     -0.2456
     37  OD2       24.0650    7.9700    9.2070 O.co2 104  ASP104     -0.2456
     38  N         16.9130    9.1240   14.0460 N.3   107  ASN107     -0.1225
     39  CA        16.8020   10.5300   14.4210 C.3   107  ASN107      0.1785
     40  C         17.1680   11.4640   13.2500 C.2   107  ASN107      0.2597
     41  O         18.3390   11.7540   13.0070 O.2   107  ASN107     -0.2718
     42  CB        17.6940   10.8090   15.6450 C.3   107  ASN107      0.1169
     43  CG        17.3840   12.1440   16.3390 C.2   107  ASN107      0.2627
     44  OD1       18.1870   12.6410   17.1260 O.2   107  ASN107     -0.2716
     45  ND2       16.2440   12.7120   16.0570 N.am  107  ASN107     -0.0877
     46  N         16.1520   11.9320   12.5400 N.am  108  ALA108     -0.1966
     47  CA        16.3350   12.8130   11.3870 C.3   108  ALA108      0.1728
     48  C         16.3230   14.3090   11.7300 C.2   108  ALA108      0.2616
     49  O         16.3680   15.1590   10.8370 O.2   108  ALA108     -0.2715
     50  CB        15.2760   12.5090   10.3390 C.3   108  ALA108      0.0334
     51  N         16.2920   14.6280   13.0110 N.am  109  TRP109     -0.1960
     52  CA        16.0140   15.9910   13.4530 C.3   109  TRP109      0.1771
     53  C         17.2720   16.7920   13.7570 C.2   109  TRP109      0.2619
     54  O         18.2880   16.2220   14.1330 O.2   109  TRP109     -0.2715
     55  CB        15.1210   15.9450   14.6900 C.3   109  TRP109      0.0590
     56  CG        13.8210   15.2500   14.4370 C.ar  109  TRP109      0.0006
     57  CD1       13.5210   13.9440   14.7080 C.ar  109  TRP109      0.0946
     58  CD2       12.6420   15.8270   13.8550 C.ar  109  TRP109      0.0152
     59  NE1       12.2210   13.6700   14.3300 N.ar  109  TRP109     -0.2442
     60  CE2       11.6600   14.8080   13.8060 C.ar  109  TRP109      0.0810
     61  CE3       12.3220   17.1090   13.3630 C.ar  109  TRP109      0.0012
     62  CZ2       10.3710   15.0290   13.2950 C.ar  109  TRP109      0.0191
     63  CZ3       11.0380   17.3320   12.8520 C.ar  109  TRP109      0.0001
     64  CH2       10.0810   16.2970   12.8270 C.ar  109  TRP109      0.0015
     65  N         17.1880   18.1090   13.5760 N.am  110  GLU110     -0.1977
     66  CA        18.2870   19.0260   13.8930 C.3   110  GLU110      0.1602
     67  C         17.8810   19.8980   15.0760 C.2   110  GLU110      0.2287
     68  O         16.7270   20.3470   15.1550 O.2   110  GLU110     -0.2864
     69  CB        18.6440   19.9310   12.6960 C.3   110  GLU110      0.0415
     70  CG        18.9740   19.2130   11.3720 C.3   110  GLU110      0.1163
     71  CD        20.3940   18.6520   11.2810 C.2   110  GLU110      0.3649
     72  OE1       21.0900   18.4750   12.3140 O.co2 110  GLU110     -0.2457
     73  OE2       20.8080   18.3570   10.1440 O.co2 110  GLU110     -0.2457
     74  N          7.3580   16.0600    8.4710 N.3   274  ARG274     -0.1245
     75  CA         7.8580   14.8860    9.1760 C.3   274  ARG274      0.1563
     76  C          7.2400   14.8000   10.5590 C.2   274  ARG274      0.2260
     77  O          6.9650   15.8170   11.1950 O.2   274  ARG274     -0.2867
     78  CB         9.4040   14.9040    9.2450 C.3   274  ARG274      0.0307
     79  CG        10.0330   13.7760   10.0620 C.3   274  ARG274      0.0489
     80  CD        11.5720   13.7300    9.9460 C.3   274  ARG274      0.2205
     81  NE        12.1610   15.0250   10.2620 N.pl3 274  ARG274     -0.0865
     82  CZ        12.6660   15.8650    9.3600 C.cat 274  ARG274      0.5346
     83  NH1       12.6920   15.5300    8.0750 N.pl3 274  ARG274      0.1354
     84  NH2       13.1520   17.0350    9.7510 N.pl3 274  ARG274      0.1354
     85  N         11.1690   20.3660    6.5360 N.3   303  ASP303     -0.1239
     86  CA        12.3550   20.9260    5.9250 C.3   303  ASP303      0.1674
     87  C         11.9330   21.5850    4.6110 C.2   303  ASP303      0.2266
     88  O         11.0740   21.0460    3.8870 O.2   303  ASP303     -0.2867
     89  CB        13.3890   19.8280    5.6270 C.3   303  ASP303      0.1410
     90  CG        13.7110   18.9600    6.8400 C.2   303  ASP303      0.3668
     91  OD1       13.3530   19.3150    7.9920 O.co2 303  ASP303     -0.2456
     92  OD2       14.3400   17.9000    6.6310 O.co2 303  ASP303     -0.2456
     93  N         20.3330   25.1860    7.4200 N.3   338  ARG338     -0.1245
     94  CA        21.3910   24.2090    7.2700 C.3   338  ARG338      0.1563
     95  C         22.0380   24.3560    5.9070 C.2   338  ARG338      0.2260
     96  O         21.3530   24.4010    4.8900 O.2   338  ARG338     -0.2867
     97  CB        20.8390   22.7880    7.4710 C.3   338  ARG338      0.0307
     98  CG        21.8700   21.6680    7.2870 C.3   338  ARG338      0.0489
     99  CD        21.2580   20.2860    7.4830 C.3   338  ARG338      0.2205
    100  NE        20.2470   20.0220    6.4690 N.pl3 338  ARG338     -0.0865
    101  CZ        19.1470   19.2950    6.6620 C.cat 338  ARG338      0.5346
    102  NH1       18.8910   18.7440    7.8420 N.pl3 338  ARG338      0.1354
    103  NH2       18.2810   19.1450    5.6760 N.pl3 338  ARG338      0.1354
    104  N         25.2170   22.6010    3.6580 N.3   340  LYS340     -0.1245
    105  CA        26.2810   21.6190    3.4530 C.3   340  LYS340      0.1561
    106  C         27.2390   22.0850    2.3810 C.2   340  LYS340      0.2260
    107  O         26.8230   22.5930    1.3420 O.2   340  LYS340     -0.2867
    108  CB        25.6980   20.2660    3.0540 C.3   340  LYS340      0.0271
    109  CG        24.6540   19.7460    4.0240 C.3   340  LYS340      0.0035
    110  CD        24.0250   18.4590    3.5120 C.3   340  LYS340      0.0206
    111  CE        22.7150   18.1830    4.2440 C.3   340  LYS340      0.1093
    112  NZ        22.1660   16.8190    3.9490 N.3   340  LYS340     -0.1314
@<TRIPOS>BOND
     1   107   106    2
     2   106   105    1
     3   108   105    1
     4   108   109    1
     5   105   104    1
     6   110   109    1
     7   110   111    1
     8    88    87    2
     9   112   111    1
    10    87    86    1
    11    96    95    2
    12     1     2    1
    13     4     3    2
    14    89    86    1
    15    89    90    1
    16   103   101    1
    17    95    94    1
    18    86    85    1
    19     3     2    1
    20     3     5   am
    21   100   101    2
    22   100    99    1
    23    92    90   ar
    24   101   102    1
    25    90    91   ar
    26    10     9    1
    27    94    93    1
    28    94    97    1
    29    98    97    1
    30    98    99    1
    31     5     6    1
    32     6     9    1
    33     6     7    1
    34    11     9    1
    35    83    82    1
    36     7     8    2
    37    74    75    1
    38    75    78    1
    39    75    76    1
    40    37    35   ar
    41    78    79    1
    42    24    23    2
    43    82    84    1
    44    82    81    2
    45    34    35    1
    46    34    31    1
    47    29    28    1
    48    33    32    2
    49    28    27    1
    50    80    79    1
    51    80    81    1
    52    35    36   ar
    53    73    71   ar
    54    23    22    1
    55    50    47    1
    56    32    31    1
    57    12    13    1
    58    76    77    2
    59    26    27    1
    60    26    25    1
    61    16    13    1
    62    16    17    1
    63    13    14    1
    64    49    48    2
    65    31    30    1
    66    71    70    1
    67    71    72   ar
    68    70    69    1
    69    47    48    1
    70    47    46    1
    71    17    18    1
    72    18    19    1
    73    22    25    1
    74    22    21    1
    75    48    51   am
    76    20    19    1
    77    14    15    2
    78    46    40   am
    79    69    66    1
    80    64    63   ar
    81    64    62   ar
    82    63    61   ar
    83    41    40    2
    84    51    52    1
    85    40    39    1
    86    62    60   ar
    87    61    58   ar
    88    52    53    1
    89    52    55    1
    90    65    53   am
    91    65    66    1
    92    53    54    2
    93    60    58   ar
    94    60    59   ar
    95    58    56   ar
    96    66    67    1
    97    38    39    1
    98    59    57   ar
    99    39    42    1
   100    56    55    1
   101    56    57   ar
   102    67    68    2
   103    42    43    1
   104    45    43   am
   105    43    44    2
