@<TRIPOS>MOLECULE
tmp/3a2sA01.pdb
 84 79 0 0 0
SMALL
GASTEIGER

@<TRIPOS>ATOM
      1  N         34.2840   19.2350   15.3580 N.3    64  LYS64      -0.1245
      2  CA        33.1620   20.0730   15.7640 C.3    64  LYS64       0.1561
      3  C         33.5250   21.5160   15.4530 C.2    64  LYS64       0.2260
      4  O         34.6700   21.9330   15.7030 O.2    64  LYS64      -0.2867
      5  CB        32.9050   19.9200   17.2640 C.3    64  LYS64       0.0271
      6  CG        32.3620   18.5430   17.6910 C.3    64  LYS64       0.0035
      7  CD        32.3210   18.4440   19.2260 C.3    64  LYS64       0.0206
      8  CE        32.0820   17.0060   19.6570 C.3    64  LYS64       0.1093
      9  NZ        32.0170   16.9210   21.1470 N.3    64  LYS64      -0.1314
     10  N         39.0970    7.5290   15.6480 N.3    94  ASN94      -0.1240
     11  CA        37.9470    7.9620   16.4380 C.3    94  ASN94       0.1653
     12  C         36.7530    7.6830   15.5390 C.2    94  ASN94       0.2266
     13  O         36.4360    8.4670   14.6500 O.2    94  ASN94      -0.2867
     14  CB        38.1020    9.4540   16.7700 C.3    94  ASN94       0.1155
     15  CG        37.0320    9.9860   17.7110 C.2    94  ASN94       0.2627
     16  OD1       36.8360   11.1980   17.7740 O.2    94  ASN94      -0.2716
     17  ND2       36.3680    9.1120   18.4640 N.am   94  ASN94      -0.0877
     18  N         25.8620    4.1200   16.3970 N.3   100  LYS100     -0.1245
     19  CA        25.8080    5.5420   16.0960 C.3   100  LYS100      0.1561
     20  C         25.4510    5.7430   14.6280 C.2   100  LYS100      0.2260
     21  O         24.6000    6.5730   14.3060 O.2   100  LYS100     -0.2867
     22  CB        27.1020    6.2840   16.4790 C.3   100  LYS100      0.0271
     23  CG        26.9990    7.7920   16.2130 C.3   100  LYS100      0.0035
     24  CD        28.1620    8.5710   16.7810 C.3   100  LYS100      0.0206
     25  CE        28.1910    9.9960   16.2130 C.3   100  LYS100      0.1093
     26  NZ        26.9100   10.7260   16.4470 N.3   100  LYS100     -0.1314
     27  N         24.6100    5.7330   21.6770 N.3   128  GLU128     -0.1231
     28  CA        25.4370    5.9800   20.5070 C.3   128  GLU128      0.1699
     29  C         26.6740    6.7740   20.9460 C.2   128  GLU128      0.2593
     30  O         26.5740    7.6620   21.7940 O.2   128  GLU128     -0.2718
     31  CB        24.6270    6.7450   19.4440 C.3   128  GLU128      0.0402
     32  CG        23.4230    5.9470   18.8900 C.3   128  GLU128      0.1161
     33  CD        22.5160    6.7450   17.9340 C.2   128  GLU128      0.3649
     34  OE1       22.8960    7.8460   17.4660 O.co2 128  GLU128     -0.2457
     35  OE2       21.4030    6.2550   17.6400 O.co2 128  GLU128     -0.2457
     36  N         27.8310    6.4320   20.3910 N.am  129  SER129     -0.1938
     37  CA        29.0680    7.1700   20.6870 C.3   129  SER129      0.2055
     38  C         30.1030    7.0390   19.5670 C.2   129  SER129      0.2643
     39  O         29.9230    6.2480   18.6400 O.2   129  SER129     -0.2714
     40  CB        29.6840    6.6980   22.0130 C.3   129  SER129      0.2130
     41  OG        30.2510    5.4090   21.8690 O.3   129  SER129     -0.2179
     42  N         31.1580    7.8380   19.6640 N.am  130  ARG130     -0.1963
     43  CA        32.3750    7.6210   18.9150 C.3   130  ARG130      0.1729
     44  C         33.3720    6.9910   19.8670 C.2   130  ARG130      0.2616
     45  O         33.4190    7.3400   21.0420 O.2   130  ARG130     -0.2715
     46  CB        32.9280    8.9420   18.3740 C.3   130  ARG130      0.0348
     47  CG        32.1840    9.4670   17.1540 C.3   130  ARG130      0.0492
     48  CD        32.7570   10.7740   16.6530 C.3   130  ARG130      0.2205
     49  NE        32.5710   11.8480   17.6200 N.pl3 130  ARG130     -0.0865
     50  CZ        31.5010   12.6360   17.6750 C.cat 130  ARG130      0.5346
     51  NH1       30.5180   12.5030   16.8010 N.pl3 130  ARG130      0.1354
     52  NH2       31.4300   13.5770   18.6040 N.pl3 130  ARG130      0.1354
     53  N         34.1610    6.0470   19.3650 N.am  131  GLU131     -0.1977
     54  CA        35.1690    5.3840   20.1920 C.3   131  GLU131      0.1602
     55  C         36.4480    5.1960   19.4140 C.2   131  GLU131      0.2287
     56  O         36.4120    4.9810   18.2010 O.2   131  GLU131     -0.2864
     57  CB        34.6660    4.0030   20.6710 C.3   131  GLU131      0.0415
     58  CG        33.3370    4.0250   21.4290 C.3   131  GLU131      0.1163
     59  CD        33.4330    4.7570   22.7590 C.2   131  GLU131      0.3649
     60  OE1       34.5390    4.8150   23.3300 O.co2 131  GLU131     -0.2457
     61  OE2       32.4080    5.2940   23.2260 O.co2 131  GLU131     -0.2457
     62  N         26.9420    5.4890   28.5030 N.3   203  ARG203     -0.1231
     63  CA        28.3010    5.0590   28.8360 C.3   203  ARG203      0.1694
     64  C         29.2210    6.2360   29.1040 C.2   203  ARG203      0.2592
     65  O         29.3030    7.1490   28.3020 O.2   203  ARG203     -0.2718
     66  CB        28.9080    4.1800   27.7400 C.3   203  ARG203      0.0321
     67  CG        28.8450    2.6920   28.0350 C.3   203  ARG203      0.0489
     68  CD        28.9670    1.8700   26.7770 C.3   203  ARG203      0.2205
     69  NE        30.0900    2.3030   25.9530 N.pl3 203  ARG203     -0.0865
     70  CZ        29.9900    2.8890   24.7620 C.cat 203  ARG203      0.5346
     71  NH1       28.8110    3.1130   24.2000 N.pl3 203  ARG203      0.1354
     72  NH2       31.0910    3.2370   24.1210 N.pl3 203  ARG203      0.1354
     73  N         29.9030    6.1950   30.2470 N.am  204  VAL204     -0.1966
     74  CA        30.9360    7.1700   30.6020 C.3   204  VAL204      0.1727
     75  C         32.2590    6.4430   30.8670 C.2   204  VAL204      0.2616
     76  O         32.2810    5.2280   31.0220 O.2   204  VAL204     -0.2715
     77  CB        30.5430    8.0260   31.8390 C.3   204  VAL204      0.0290
     78  CG1       29.3310    8.9100   31.5220 C.3   204  VAL204      0.0023
     79  CG2       30.2650    7.1400   33.0620 C.3   204  VAL204      0.0023
     80  N         33.3490    7.2090   30.9180 N.am  205  ALA205     -0.1977
     81  CA        34.6870    6.6890   31.1710 C.3   205  ALA205      0.1597
     82  C         34.8050    6.1040   32.5790 C.2   205  ALA205      0.2287
     83  O         34.1670    6.5800   33.5120 O.2   205  ALA205     -0.2864
     84  CB        35.7310    7.7990   30.9500 C.3   205  ALA205      0.0319
@<TRIPOS>BOND
     1    21    20    2
     2    20    19    1
     3    13    12    2
     4     1     2    1
     5     3     4    2
     6     3     2    1
     7    12    11    1
     8    10    11    1
     9     2     5    1
    10    19    18    1
    11    19    22    1
    12    25    26    1
    13    25    24    1
    14    23    22    1
    15    23    24    1
    16    11    14    1
    17    48    47    1
    18    48    49    1
    19    14    15    1
    20    51    50    1
    21    47    46    1
    22     5     6    1
    23    34    33   ar
    24    49    50    2
    25    35    33   ar
    26    50    52    1
    27     6     7    1
    28    15    16    2
    29    15    17   am
    30    33    32    1
    31    56    55    2
    32    46    43    1
    33    39    38    2
    34    32    31    1
    35    43    42    1
    36    43    44    1
    37     7     8    1
    38    53    44   am
    39    53    54    1
    40    55    54    1
    41    31    28    1
    42    38    42   am
    43    38    37    1
    44     8     9    1
    45    44    45    2
    46    54    57    1
    47    36    37    1
    48    36    29   am
    49    28    29    1
    50    28    27    1
    51    57    58    1
    52    37    40    1
    53    29    30    2
    54    58    59    1
    55    41    40    1
    56    59    61   ar
    57    59    60   ar
    58    72    70    1
    59    71    70    1
    60    70    69    2
    61    69    68    1
    62    68    67    1
    63    66    67    1
    64    66    63    1
    65    65    64    2
    66    62    63    1
    67    63    64    1
    68    64    73   am
    69    73    74    1
    70    74    75    1
    71    74    77    1
    72    75    80   am
    73    75    76    2
    74    80    81    1
    75    84    81    1
    76    81    82    1
    77    78    77    1
    78    77    79    1
    79    82    83    2
