@<TRIPOS>MOLECULE
tmp/3a2yA00.pdb
 207 203 0 0 0
SMALL
GASTEIGER

@<TRIPOS>ATOM
      1  N         35.5400   29.1620   88.8080 N.3    22  TYR22      -0.1241
      2  CA        35.4240   28.0880   89.7860 C.3    22  TYR22       0.1605
      3  C         34.0930   27.3510   89.7030 C.2    22  TYR22       0.2264
      4  O         33.5680   26.8850   90.7150 O.2    22  TYR22      -0.2867
      5  CB        35.6310   28.6420   91.2040 C.3    22  TYR22       0.0534
      6  CG        35.2050   30.0820   91.3810 C.ar   22  TYR22      -0.0201
      7  CD1       33.8620   30.4510   91.3210 C.ar   22  TYR22      -0.0009
      8  CD2       36.1520   31.0820   91.5950 C.ar   22  TYR22      -0.0009
      9  CE1       33.4710   31.7880   91.4720 C.ar   22  TYR22       0.0417
     10  CE2       35.7770   32.4170   91.7480 C.ar   22  TYR22       0.0417
     11  CZ        34.4360   32.7650   91.6880 C.ar   22  TYR22       0.1957
     12  OH        34.0590   34.0860   91.8450 O.3    22  TYR22      -0.2866
     13  N         36.3720   26.0910   98.2290 N.3    30  TYR30      -0.1227
     14  CA        37.0260   27.1890   97.5200 C.3    30  TYR30       0.1736
     15  C         37.4140   28.3480   98.4380 C.2    30  TYR30       0.2595
     16  O         38.4810   28.9420   98.2860 O.2    30  TYR30      -0.2718
     17  CB        36.1080   27.7080   96.4090 C.3    30  TYR30       0.0548
     18  CG        36.6280   28.9400   95.6980 C.ar   30  TYR30      -0.0200
     19  CD1       37.8200   28.9040   94.9740 C.ar   30  TYR30      -0.0009
     20  CD2       35.9260   30.1470   95.7520 C.ar   30  TYR30      -0.0009
     21  CE1       38.3030   30.0360   94.3190 C.ar   30  TYR30       0.0417
     22  CE2       36.4010   31.2860   95.1000 C.ar   30  TYR30       0.0417
     23  CZ        37.5880   31.2220   94.3870 C.ar   30  TYR30       0.1957
     24  OH        38.0520   32.3400   93.7300 O.3    30  TYR30      -0.2866
     25  N         36.5410   28.6700   99.3890 N.am   31  GLU31      -0.1979
     26  CA        36.7990   29.7740  100.3040 C.3    31  GLU31       0.1602
     27  C         37.5980   29.3920  101.5470 C.2    31  GLU31       0.2287
     28  O         38.1990   30.2570  102.1850 O.2    31  GLU31      -0.2864
     29  CB        35.4760   30.4120  100.7360 C.3    31  GLU31       0.0415
     30  CG        34.6850   31.0350   99.5970 C.3    31  GLU31       0.1163
     31  CD        33.3910   31.6770  100.0680 C.2    31  GLU31       0.3649
     32  OE1       32.6560   32.2250   99.2180 O.co2  31  GLU31      -0.2457
     33  OE2       33.1090   31.6330  101.2840 O.co2  31  GLU31      -0.2457
     34  N         51.2560   37.8340  101.2010 N.3    44  TYR44      -0.1241
     35  CA        49.9290   37.4420  100.7450 C.3    44  TYR44       0.1605
     36  C         49.4030   38.4000   99.6820 C.2    44  TYR44       0.2264
     37  O         49.3300   39.6130   99.9020 O.2    44  TYR44      -0.2867
     38  CB        48.9660   37.3730  101.9360 C.3    44  TYR44       0.0534
     39  CG        47.5270   37.0830  101.5640 C.ar   44  TYR44      -0.0201
     40  CD1       46.5710   38.1020  101.5680 C.ar   44  TYR44      -0.0009
     41  CD2       47.1200   35.7970  101.2030 C.ar   44  TYR44      -0.0009
     42  CE1       45.2490   37.8510  101.2200 C.ar   44  TYR44       0.0417
     43  CE2       45.7920   35.5340  100.8480 C.ar   44  TYR44       0.0417
     44  CZ        44.8650   36.5670  100.8600 C.ar   44  TYR44       0.1957
     45  OH        43.5580   36.3360  100.4950 O.3    44  TYR44      -0.2866
     46  N         46.3670   37.5870   97.7570 N.3    46  GLY46      -0.1210
     47  CA        44.9200   37.5520   97.7240 C.3    46  GLY46       0.1956
     48  C         44.3760   36.1590   97.4800 C.2    46  GLY46       0.2611
     49  O         45.1020   35.1740   97.6160 O.2    46  GLY46      -0.2717
     50  N         43.1010   36.0800   97.1170 N.am   47  HIS47      -0.1975
     51  CA        42.4330   34.8020   96.8700 C.3    47  HIS47       0.1656
     52  C         42.4110   34.4940   95.3680 C.2    47  HIS47       0.2291
     53  O         42.0080   35.3350   94.5660 O.2    47  HIS47      -0.2864
     54  CB        41.0000   34.8610   97.4190 C.3    47  HIS47       0.0771
     55  CG        40.3820   33.5210   97.6580 C.ar   47  HIS47       0.0820
     56  ND1       39.3440   33.0280   96.9020 N.ar   47  HIS47      -0.2267
     57  CD2       40.6580   32.5660   98.5840 C.ar   47  HIS47       0.1154
     58  CE1       39.0030   31.8290   97.3460 C.ar   47  HIS47       0.1986
     59  NE2       39.7830   31.5280   98.3660 N.ar   47  HIS47      -0.2212
     60  N         40.7550   36.1300   92.1770 N.3    50  GLN50      -0.1231
     61  CA        39.8450   37.2700   92.2490 C.3    50  GLN50       0.1698
     62  C         40.4520   38.5780   91.7380 C.2    50  GLN50       0.2592
     63  O         41.6650   38.6850   91.5650 O.2    50  GLN50      -0.2718
     64  CB        39.3850   37.4450   93.6940 C.3    50  GLN50       0.0381
     65  CG        38.6780   36.2170   94.2640 C.3    50  GLN50       0.0905
     66  CD        37.2450   36.0860   93.7980 C.2    50  GLN50       0.2608
     67  OE1       36.7290   34.9750   93.6550 O.2    50  GLN50      -0.2717
     68  NE2       36.5800   37.2200   93.5690 N.am   50  GLN50      -0.0878
     69  N         39.6020   39.5740   91.5090 N.am   51  ALA51      -0.1966
     70  CA        40.0600   40.8620   91.0150 C.3    51  ALA51       0.1728
     71  C         41.0380   41.5390   91.9700 C.2    51  ALA51       0.2616
     72  O         42.0080   42.1580   91.5300 O.2    51  ALA51      -0.2715
     73  CB        38.8620   41.7840   90.7550 C.3    51  ALA51       0.0334
     74  N         40.7740   41.4300   93.2690 N.am   52  VAL52      -0.1963
     75  CA        41.6420   42.0480   94.2690 C.3    52  VAL52       0.1727
     76  C         43.0360   41.4300   94.2630 C.2    52  VAL52       0.2616
     77  O         44.0320   42.1320   94.3980 O.2    52  VAL52      -0.2715
     78  CB        41.0300   41.9230   95.6960 C.3    52  VAL52       0.0290
     79  CG1       41.9970   42.4750   96.7380 C.3    52  VAL52       0.0023
     80  CG2       39.7190   42.6810   95.7620 C.3    52  VAL52       0.0023
     81  N         43.1040   40.1090   94.1010 N.am   53  GLU53      -0.1977
     82  CA        44.3950   39.4200   94.0860 C.3    53  GLU53       0.1602
     83  C         45.2760   39.9860   92.9660 C.2    53  GLU53       0.2287
     84  O         46.4500   40.2800   93.1810 O.2    53  GLU53      -0.2864
     85  CB        44.1770   37.9150   93.8770 C.3    53  GLU53       0.0415
     86  CG        45.4200   37.0240   94.0270 C.3    53  GLU53       0.1163
     87  CD        46.3580   37.0780   92.8290 C.2    53  GLU53       0.3649
     88  OE1       45.8890   37.3620   91.7070 O.co2  53  GLU53      -0.2457
     89  OE2       47.5640   36.8090   93.0120 O.co2  53  GLU53      -0.2457
     90  N         46.4330   43.6740   93.6560 N.3    56  ARG56      -0.1245
     91  CA        47.4750   43.7370   94.6640 C.3    56  ARG56       0.1563
     92  C         48.7990   43.1700   94.1380 C.2    56  ARG56       0.2260
     93  O         49.8680   43.7160   94.4280 O.2    56  ARG56      -0.2867
     94  CB        47.0370   43.0090   95.9500 C.3    56  ARG56       0.0307
     95  CG        48.0060   43.2240   97.1120 C.3    56  ARG56       0.0489
     96  CD        47.5530   42.6020   98.4450 C.3    56  ARG56       0.2205
     97  NE        46.3470   43.2220   98.9910 N.pl3  56  ARG56      -0.0865
     98  CZ        45.1280   42.7010   98.8950 C.cat  56  ARG56       0.5346
     99  NH1       44.0860   43.3340   99.4240 N.pl3  56  ARG56       0.1354
    100  NH2       44.9460   41.5400   98.2770 N.pl3  56  ARG56       0.1354
    101  N         44.2790   44.3340  102.9860 N.3    69  ASP69      -0.1225
    102  CA        43.2820   43.3190  102.6790 C.3    69  ASP69       0.1805
    103  C         41.8800   43.9180  102.7890 C.2    69  ASP69       0.2598
    104  O         41.6280   44.7790  103.6330 O.2    69  ASP69      -0.2718
    105  CB        43.4240   42.1510  103.6640 C.3    69  ASP69       0.1424
    106  CG        44.8340   41.5700  103.6880 C.2    69  ASP69       0.3668
    107  OD1       45.1030   40.6710  104.5220 O.co2  69  ASP69      -0.2456
    108  OD2       45.6760   42.0090  102.8710 O.co2  69  ASP69      -0.2456
    109  N         40.9710   43.4830  101.9250 N.am   70  VAL70      -0.1966
    110  CA        39.5980   43.9800  101.9620 C.3    70  VAL70       0.1727
    111  C         38.6490   42.8280  101.7150 C.2    70  VAL70       0.2617
    112  O         38.9940   41.8730  101.0240 O.2    70  VAL70      -0.2715
    113  CB        39.3370   45.0740  100.8910 C.3    70  VAL70       0.0290
    114  CG1       40.1660   46.3130  101.1930 C.3    70  VAL70       0.0023
    115  CG2       39.6610   44.5390   99.4980 C.3    70  VAL70       0.0023
    116  N         37.4530   42.9060  102.2830 N.am   71  GLY71      -0.1940
    117  CA        36.4880   41.8500  102.0720 C.3    71  GLY71       0.2014
    118  C         35.8880   41.9510  100.6820 C.2    71  GLY71       0.2639
    119  O         35.7360   40.9520   99.9790 O.2    71  GLY71      -0.2714
    120  N         35.5550   43.1740  100.2810 N.am   72  MET72      -0.1963
    121  CA        34.9550   43.4250   98.9780 C.3    72  MET72       0.1736
    122  C         35.7880   44.4670   98.2430 C.2    72  MET72       0.2616
    123  O         36.3310   45.3800   98.8630 O.2    72  MET72      -0.2715
    124  CB        33.5290   43.9390   99.1620 C.3    72  MET72       0.0427
    125  CG        32.6610   43.0360  100.0110 C.3    72  MET72       0.0599
    126  SD        31.1310   43.8040  100.5600 S.3    72  MET72      -0.1393
    127  CE        31.5960   44.2440  102.2570 C.3    72  MET72       0.0692
    128  N         35.8770   44.3330   96.9230 N.am   73  ALA73      -0.1977
    129  CA        36.6540   45.2620   96.1170 C.3    73  ALA73       0.1597
    130  C         36.1760   46.7040   96.2210 C.2    73  ALA73       0.2287
    131  O         36.9900   47.6270   96.1890 O.2    73  ALA73      -0.2864
    132  CB        36.6490   44.8210   94.6550 C.3    73  ALA73       0.0319
    133  N         26.3200   43.7870   87.2020 N.3   117  GLU117     -0.1231
    134  CA        27.1960   42.6500   86.9280 C.3   117  GLU117      0.1699
    135  C         28.1310   42.3330   88.0990 C.2   117  GLU117      0.2592
    136  O         28.5550   41.1900   88.2710 O.2   117  GLU117     -0.2718
    137  CB        28.0260   42.9290   85.6710 C.3   117  GLU117      0.0402
    138  CG        28.9620   41.7990   85.2630 C.3   117  GLU117      0.1161
    139  CD        28.2410   40.6500   84.5820 C.2   117  GLU117      0.3649
    140  OE1       28.8750   39.5920   84.3710 O.co2 117  GLU117     -0.2457
    141  OE2       27.0440   40.8060   84.2470 O.co2 117  GLU117     -0.2457
    142  N         28.4540   43.3460   88.9040 N.am  118  PHE118     -0.1962
    143  CA        29.3500   43.1590   90.0470 C.3   118  PHE118      0.1771
    144  C         28.5720   43.1400   91.3600 C.2   118  PHE118      0.2619
    145  O         29.0300   43.6680   92.3730 O.2   118  PHE118     -0.2715
    146  CB        30.3940   44.2790   90.0670 C.3   118  PHE118      0.0574
    147  CG        31.2030   44.3660   88.7980 C.ar  118  PHE118     -0.0200
    148  CD1       31.5540   45.5970   88.2620 C.ar  118  PHE118     -0.0042
    149  CD2       31.6060   43.2110   88.1350 C.ar  118  PHE118     -0.0042
    150  CE1       32.2880   45.6770   87.0730 C.ar  118  PHE118     -0.0003
    151  CE2       32.3380   43.2820   86.9440 C.ar  118  PHE118     -0.0003
    152  CZ        32.6780   44.5140   86.4150 C.ar  118  PHE118     -0.0000
    153  N         27.4010   42.5100   91.3140 N.am  119  LYS119     -0.1977
    154  CA        26.4920   42.3800   92.4510 C.3   119  LYS119      0.1596
    155  C         26.8850   43.0660   93.7580 C.2   119  LYS119      0.2287
    156  O         26.7330   44.2740   93.8910 O.2   119  LYS119     -0.2864
    157  CB        26.1830   40.9010   92.7150 C.3   119  LYS119      0.0298
    158  CG        25.2460   40.6600   93.9080 C.3   119  LYS119      0.0038
    159  CD        24.0120   41.5680   93.8690 C.3   119  LYS119      0.0206
    160  CE        23.0310   41.1510   92.7830 C.3   119  LYS119      0.1093
    161  NZ        22.3790   39.8490   93.1050 N.3   119  LYS119     -0.1314
    162  N         30.0570   42.5690   95.3780 N.3   121  THR121     -0.1203
    163  CA        31.4950   42.5610   95.6030 C.3   121  THR121      0.1994
    164  C         32.1420   43.8130   95.0220 C.2   121  THR121      0.2618
    165  O         33.1520   44.3050   95.5360 O.2   121  THR121     -0.2717
    166  CB        32.1610   41.3540   94.9240 C.3   121  THR121      0.1784
    167  OG1       31.9590   41.4380   93.5070 O.3   121  THR121     -0.2211
    168  CG2       31.5650   40.0520   95.4280 C.3   121  THR121      0.0376
    169  N         31.5520   44.3340   93.9590 N.am  122  GLY122     -0.1942
    170  CA        32.1390   45.4860   93.3050 C.3   122  GLY122      0.2014
    171  C         33.2700   44.9060   92.4680 C.2   122  GLY122      0.2638
    172  O         33.2950   43.7020   92.2130 O.2   122  GLY122     -0.2714
    173  N         34.2190   45.7360   92.0560 N.am  123  HIS123     -0.1973
    174  CA        35.3200   45.2430   91.2360 C.3   123  HIS123      0.1656
    175  C         36.5000   46.2020   91.2730 C.2   123  HIS123      0.2291
    176  O         36.3710   47.3610   91.6900 O.2   123  HIS123     -0.2864
    177  CB        34.8300   45.0460   89.7920 C.3   123  HIS123      0.0771
    178  CG        35.8670   44.5250   88.8500 C.ar  123  HIS123      0.0820
    179  ND1       36.5670   43.3470   89.0670 N.ar  123  HIS123     -0.2267
    180  CD2       36.3130   44.9940   87.6530 C.ar  123  HIS123      0.1154
    181  CE1       37.3830   43.1250   88.0600 C.ar  123  HIS123      0.1986
    182  NE2       37.2500   44.1120   87.1850 N.ar  123  HIS123     -0.2212
    183  N         39.1290   37.8910   86.9930 N.3   141  ASN141     -0.1225
    184  CA        37.7670   37.5120   87.3320 C.3   141  ASN141      0.1785
    185  C         36.6480   38.1990   86.5550 C.2   141  ASN141      0.2597
    186  O         35.5470   38.3650   87.0660 O.2   141  ASN141     -0.2718
    187  CB        37.5400   37.6610   88.8420 C.3   141  ASN141      0.1169
    188  CG        36.4840   36.6910   89.3670 C.2   141  ASN141      0.2627
    189  OD1       36.1150   35.7370   88.6820 O.2   141  ASN141     -0.2716
    190  ND2       36.0120   36.9230   90.5900 N.am  141  ASN141     -0.0877
    191  N         36.9330   38.6060   85.3240 N.am  142  VAL142     -0.1980
    192  CA        35.9330   39.2140   84.4530 C.3   142  VAL142      0.1595
    193  C         36.0280   38.4350   83.1380 C.2   142  VAL142      0.2287
    194  O         35.0520   37.8470   82.6730 O.2   142  VAL142     -0.2864
    195  CB        36.1930   40.7170   84.1910 C.3   142  VAL142      0.0276
    196  CG1       35.2230   41.2330   83.1280 C.3   142  VAL142      0.0022
    197  CG2       35.9960   41.5110   85.4770 C.3   142  VAL142      0.0022
    198  N         37.6670   35.2590   81.3270 N.3   144  HIS144     -0.1241
    199  CA        38.2350   33.9690   81.7000 C.3   144  HIS144      0.1621
    200  C         38.7990   33.2060   80.5020 C.2   144  HIS144      0.2264
    201  O         39.1640   32.0380   80.6100 O.2   144  HIS144     -0.2867
    202  CB        37.1640   33.1240   82.3950 C.3   144  HIS144      0.0745
    203  CG        36.6120   33.7490   83.6440 C.ar  144  HIS144      0.0817
    204  ND1       37.3090   33.7590   84.8360 N.ar  144  HIS144     -0.2268
    205  CD2       35.4420   34.3730   83.8850 C.ar  144  HIS144      0.1154
    206  CE1       36.5790   34.3670   85.7570 C.ar  144  HIS144      0.1986
    207  NE2       35.4420   34.7480   85.2090 N.ar  144  HIS144     -0.2212
@<TRIPOS>BOND
     1   200   201    2
     2   200   199    1
     3   198   199    1
     4   199   202    1
     5   202   203    1
     6   194   193    2
     7   196   195    1
     8   193   192    1
     9   203   205   ar
    10   203   204   ar
    11   205   207   ar
    12   195   192    1
    13   195   197    1
    14   141   139   ar
    15   140   139   ar
    16   192   191    1
    17   139   138    1
    18   204   206   ar
    19   207   206   ar
    20   138   137    1
    21   191   185   am
    22   137   134    1
    23   152   151   ar
    24   152   150   ar
    25   185   186    2
    26   185   184    1
    27   134   133    1
    28   134   135    1
    29   151   149   ar
    30   183   184    1
    31   150   148   ar
    32   182   180   ar
    33   182   181   ar
    34   184   187    1
    35   180   178   ar
    36   181   179   ar
    37   135   136    2
    38   135   142   am
    39   149   147   ar
    40   148   147   ar
    41   189   188    2
    42   147   146    1
    43     1     2    1
    44   187   188    1
    45   178   179   ar
    46   178   177    1
    47   142   143    1
    48   188   190   am
    49     3     2    1
    50     3     4    2
    51     2     5    1
    52   177   174    1
    53   143   146    1
    54   143   144    1
    55    73    70    1
    56    70    69    1
    57    70    71    1
    58     5     6    1
    59   174   175    1
    60   174   173    1
    61   175   176    2
    62   153   144   am
    63   153   154    1
    64     7     6   ar
    65     7     9   ar
    66   144   145    2
    67     6     8   ar
    68     9    11   ar
    69    69    62   am
    70    72    71    2
    71    63    62    2
    72     8    10   ar
    73    11    10   ar
    74    11    12    1
    75    88    87   ar
    76    62    61    1
    77    71    74   am
    78   173   171   am
    79    60    61    1
    80   172   171    2
    81    61    64    1
    82   154   157    1
    83   154   155    1
    84   171   170    1
    85   157   158    1
    86   160   161    1
    87   160   159    1
    88    87    89   ar
    89    87    86    1
    90    83    84    2
    91    83    82    1
    92    74    75    1
    93   170   169    1
    94   167   166    1
    95    68    66   am
    96    67    66    2
    97    90    91    1
    98    64    65    1
    99    24    23    1
   100   155   156    2
   101    66    65    1
   102   159   158    1
   103    85    86    1
   104    85    82    1
   105   169   164   am
   106    82    81    1
   107    81    76   am
   108    92    93    2
   109    92    91    1
   110    76    75    1
   111    76    77    2
   112    75    78    1
   113    21    23   ar
   114    21    19   ar
   115    23    22   ar
   116    53    52    2
   117   132   129    1
   118    91    94    1
   119   166   168    1
   120   166   163    1
   121    19    18   ar
   122   164   165    2
   123   164   163    1
   124    22    20   ar
   125    52    51    1
   126   162   163    1
   127    78    80    1
   128    78    79    1
   129    18    20   ar
   130    18    17    1
   131    94    95    1
   132   129   130    1
   133   129   128    1
   134   131   130    2
   135    17    14    1
   136    51    50    1
   137    51    54    1
   138    56    58   ar
   139    56    55   ar
   140   128   122   am
   141    95    96    1
   142    50    48   am
   143    58    59   ar
   144    54    55    1
   145    48    49    2
   146    48    47    1
   147    14    13    1
   148    14    15    1
   149    55    57   ar
   150    47    46    1
   151   122   123    2
   152   122   121    1
   153   100    98    1
   154    16    15    2
   155    59    57   ar
   156    15    25   am
   157    96    97    1
   158    98    97    2
   159    98    99    1
   160   121   124    1
   161   121   120    1
   162   124   125    1
   163    32    31   ar
   164    25    26    1
   165   115   113    1
   166    30    31    1
   167    30    29    1
   168    36    37    2
   169    36    35    1
   170   119   118    2
   171   125   126    1
   172    31    33   ar
   173   120   118   am
   174    26    29    1
   175    26    27    1
   176    45    44    1
   177   126   127    1
   178   118   117    1
   179    35    34    1
   180    35    38    1
   181    43    44   ar
   182    43    41   ar
   183    44    42   ar
   184   113   114    1
   185   113   110    1
   186   112   111    2
   187    41    39   ar
   188    42    40   ar
   189    27    28    2
   190    39    40   ar
   191    39    38    1
   192   111   110    1
   193   111   116   am
   194   109   110    1
   195   109   103   am
   196   117   116    1
   197   102   103    1
   198   102   101    1
   199   102   105    1
   200   103   104    2
   201   108   106   ar
   202   105   106    1
   203   106   107   ar
