@<TRIPOS>MOLECULE
tmp/3a35A00.pdb
 120 114 0 0 0
SMALL
GASTEIGER

@<TRIPOS>ATOM
      1  N         17.9000   13.9000   19.6560 N.3    41  VAL41      -0.1245
      2  CA        17.7290   12.6970   20.4630 C.3    41  VAL41       0.1561
      3  C         17.6280   13.2360   21.8790 C.2    41  VAL41       0.2260
      4  O         18.5160   13.8750   22.4200 O.2    41  VAL41      -0.2867
      5  CB        18.9350   11.7350   20.3300 C.3    41  VAL41       0.0252
      6  CG1       18.7090   10.5820   21.2970 C.3    41  VAL41       0.0019
      7  CG2       18.9150   11.1820   18.9430 C.3    41  VAL41       0.0019
      8  N         13.2190    7.9260   28.2510 N.3    47  CYS47      -0.1221
      9  CA        13.6690    7.0610   27.1530 C.3    47  CYS47       0.1808
     10  C         14.2720    7.9310   26.0340 C.2    47  CYS47       0.2602
     11  O         13.6440    8.8580   25.5700 O.2    47  CYS47      -0.2717
     12  CB        12.4320    6.3990   26.5950 C.3    47  CYS47       0.0970
     13  SG        12.7630    5.1690   25.2780 S.3    47  CYS47      -0.0800
     14  N         15.4610    7.5150   25.5490 N.am   48  SER48      -0.1938
     15  CA        16.0150    8.2050   24.4090 C.3    48  SER48       0.2055
     16  C         15.1250    7.9240   23.1630 C.2    48  SER48       0.2643
     17  O         14.9840    6.7730   22.7470 O.2    48  SER48      -0.2714
     18  CB        17.4360    7.7480   24.1090 C.3    48  SER48       0.2130
     19  OG        18.3540    8.2960   25.0670 O.3    48  SER48      -0.2179
     20  N         14.6920    9.0030   22.5160 N.am   49  LEU49      -0.1963
     21  CA        13.9030    8.9820   21.2580 C.3    49  LEU49       0.1728
     22  C         14.3950   10.0800   20.3580 C.2    49  LEU49       0.2616
     23  O         14.9210   11.1090   20.7970 O.2    49  LEU49      -0.2715
     24  CB        12.3780    9.1710   21.4980 C.3    49  LEU49       0.0311
     25  CG        11.7240    8.1470   22.4230 C.3    49  LEU49       0.0022
     26  CD1       10.2450    8.5380   22.6400 C.3    49  LEU49       0.0001
     27  CD2       11.7790    6.7000   21.8270 C.3    49  LEU49       0.0001
     28  N         14.1830    9.8660   19.0760 N.am   50  THR50      -0.1951
     29  CA        14.6450   10.8200   18.0280 C.3    50  THR50       0.1897
     30  C         13.4730   11.6120   17.4460 C.2    50  THR50       0.2313
     31  O         12.5040   11.0030   16.9990 O.2    50  THR50      -0.2863
     32  CB        15.3130    9.9490   16.8990 C.3    50  THR50       0.1794
     33  OG1       16.3510    9.1640   17.5050 O.3    50  THR50      -0.2208
     34  CG2       15.9010   10.9750   15.8370 C.3    50  THR50       0.0378
     35  N         11.2000   13.0420   14.8140 N.3    52  VAL52      -0.1245
     36  CA        11.0030   12.7290   13.3850 C.3    52  VAL52       0.1561
     37  C         10.4260   13.9600   12.6670 C.2    52  VAL52       0.2260
     38  O         10.6780   14.0590   11.4650 O.2    52  VAL52      -0.2867
     39  CB         9.9670   11.5840   13.3170 C.3    52  VAL52       0.0252
     40  CG1        9.1780   11.6040   11.9680 C.3    52  VAL52       0.0019
     41  CG2       10.6590   10.2660   13.7110 C.3    52  VAL52       0.0019
     42  N          8.7930    8.3460   16.5860 N.3    62  ASP62      -0.1225
     43  CA         8.4040    6.9450   16.4070 C.3    62  ASP62       0.1805
     44  C          8.9130    6.0220   17.4980 C.2    62  ASP62       0.2598
     45  O         10.1860    6.1150   17.7950 O.2    62  ASP62      -0.2718
     46  CB         8.9480    6.4980   15.0280 C.3    62  ASP62       0.1424
     47  CG         8.2010    7.0260   13.8780 C.2    62  ASP62       0.3668
     48  OD1        6.9490    7.1700   13.9750 O.co2  62  ASP62      -0.2456
     49  OD2        8.7360    7.2670   12.7490 O.co2  62  ASP62      -0.2456
     50  N          8.0560    5.2440   18.0810 N.am   63  ILE63      -0.1966
     51  CA         8.4670    4.3250   19.1130 C.3    63  ILE63       0.1727
     52  C          8.4280    2.9680   18.3940 C.2    63  ILE63       0.2616
     53  O          7.3770    2.4840   18.0040 O.2    63  ILE63      -0.2715
     54  CB         7.4920    4.3680   20.3140 C.3    63  ILE63       0.0290
     55  CG1        7.5410    5.8410   20.9420 C.3    63  ILE63       0.0022
     56  CG2        7.9190    3.4150   21.4310 C.3    63  ILE63       0.0023
     57  CD1        6.4600    6.6350   20.6240 C.3    63  ILE63       0.0001
     58  N          9.6130    2.3590   18.2990 N.am   64  ASP64      -0.1957
     59  CA         9.7830    1.0670   17.5480 C.3    64  ASP64       0.1840
     60  C         10.7230    0.2060   18.3820 C.2    64  ASP64       0.2622
     61  O         10.3130   -0.7060   19.0310 O.2    64  ASP64      -0.2715
     62  CB        10.1950    1.3330   16.1180 C.3    64  ASP64       0.1450
     63  CG        11.2070    2.4110   15.9040 C.2    64  ASP64       0.3671
     64  OD1       12.1610    2.7020   16.6630 O.co2  64  ASP64      -0.2456
     65  OD2       11.1870    3.0520   14.7990 O.co2  64  ASP64      -0.2456
     66  N         12.0320    0.6230   18.3500 N.am   65  GLN65      -0.1963
     67  CA        12.9650   -0.1330   19.1470 C.3    65  GLN65       0.1733
     68  C         12.6040   -0.2330   20.6040 C.2    65  GLN65       0.2616
     69  O         12.8240   -1.1770   21.3060 O.2    65  GLN65      -0.2715
     70  CB        14.2780    0.5420   18.9610 C.3    65  GLN65       0.0408
     71  CG        15.4330   -0.1680   19.6740 C.3    65  GLN65       0.0908
     72  CD        16.7610    0.5860   19.4340 C.2    65  GLN65       0.2608
     73  OE1       16.9530    1.3840   18.5060 O.2    65  GLN65      -0.2717
     74  NE2       17.6660    0.2980   20.3530 N.am   65  GLN65      -0.0878
     75  N         11.9710    0.8900   21.1250 N.am   66  ALA66      -0.1977
     76  CA        11.6280    0.9420   22.4970 C.3    66  ALA66       0.1597
     77  C         10.2660    0.3770   22.9040 C.2    66  ALA66       0.2287
     78  O          9.9070    0.3400   24.0730 O.2    66  ALA66      -0.2864
     79  CB        11.6110    2.4460   22.9280 C.3    66  ALA66       0.0319
     80  N          9.7460   -2.3630   25.8680 N.3    69  THR69      -0.1203
     81  CA        10.3730   -2.2450   27.2180 C.3    69  THR69       0.1994
     82  C         10.0580   -0.8800   27.8810 C.2    69  THR69       0.2618
     83  O         10.6720   -0.5110   28.8530 O.2    69  THR69      -0.2717
     84  CB        11.9170   -2.2980   27.0190 C.3    69  THR69       0.1784
     85  OG1       12.3020   -1.4650   25.9480 O.3    69  THR69      -0.2211
     86  CG2       12.3190   -3.7640   26.6860 C.3    69  THR69       0.0376
     87  N          8.9950   -0.2410   27.3720 N.am   70  THR70      -0.1952
     88  CA         8.5620    1.0870   27.9020 C.3    70  THR70       0.1897
     89  C          7.0510    1.1840   27.9620 C.2    70  THR70       0.2313
     90  O          6.3420    0.3030   27.4290 O.2    70  THR70      -0.2863
     91  CB         9.0870    2.2560   26.9700 C.3    70  THR70       0.1794
     92  OG1        8.5060    2.0540   25.6650 O.3    70  THR70      -0.2208
     93  CG2       10.6270    2.2270   26.8460 C.3    70  THR70       0.0378
     94  N         21.3160    7.3800   30.9360 N.3    99  THR99      -0.1203
     95  CA        21.6310    7.1330   29.5540 C.3    99  THR99       0.1994
     96  C         20.4580    7.1930   28.5580 C.2    99  THR99       0.2618
     97  O         20.6640    7.4030   27.3750 O.2    99  THR99      -0.2717
     98  CB        22.2380    5.7160   29.3190 C.3    99  THR99       0.1784
     99  OG1       21.3010    4.6790   29.5570 O.3    99  THR99      -0.2211
    100  CG2       23.4900    5.4510   30.1460 C.3    99  THR99       0.0376
    101  N         19.2390    7.0700   29.1520 N.am  100  GLY100     -0.1942
    102  CA        18.0490    7.0110   28.2130 C.3   100  GLY100      0.2014
    103  C         17.7210    5.5830   27.8090 C.2   100  GLY100      0.2639
    104  O         16.7880    5.3770   27.0130 O.2   100  GLY100     -0.2714
    105  N         18.4330    4.5650   28.2440 N.am  101  ASN101     -0.1958
    106  CA        18.1590    3.1410   27.9010 C.3   101  ASN101      0.1819
    107  C         17.2920    2.6330   29.0240 C.2   101  ASN101      0.2621
    108  O         17.7590    2.3240   30.1330 O.2   101  ASN101     -0.2715
    109  CB        19.4580    2.2810   27.8810 C.3   101  ASN101      0.1195
    110  CG        19.1260    0.8300   27.5790 C.2   101  ASN101      0.2630
    111  OD1       19.4830   -0.0540   28.3450 O.2   101  ASN101     -0.2716
    112  ND2       18.5040    0.5910   26.5270 N.am  101  ASN101     -0.0877
    113  N         15.9350    2.5950   28.8180 N.am  102  ILE102     -0.1977
    114  CA        15.0890    2.0910   29.8540 C.3   102  ILE102      0.1596
    115  C         15.2250    0.5330   29.9350 C.2   102  ILE102      0.2287
    116  O         15.1600   -0.1570   28.9470 O.2   102  ILE102     -0.2864
    117  CB        13.6000    2.4710   29.4810 C.3   102  ILE102      0.0276
    118  CG1       13.4080    4.0290   29.4740 C.3   102  ILE102      0.0022
    119  CG2       12.6020    1.7500   30.2970 C.3   102  ILE102      0.0022
    120  CD1       13.7830    4.6090   30.8170 C.3   102  ILE102      0.0001
@<TRIPOS>BOND
     1    38    37    2
     2    40    39    1
     3    37    36    1
     4    49    47   ar
     5    39    36    1
     6    39    41    1
     7    36    35    1
     8    47    48   ar
     9    47    46    1
    10    65    63   ar
    11    46    43    1
    12    34    32    1
    13    63    62    1
    14    63    64   ar
    15    62    59    1
    16    43    42    1
    17    43    44    1
    18    32    33    1
    19    32    29    1
    20    31    30    2
    21    30    29    1
    22    44    45    2
    23    44    50   am
    24    59    58    1
    25    59    60    1
    26    53    52    2
    27    29    28    1
    28    50    51    1
    29    58    52   am
    30    66    60   am
    31    66    67    1
    32    60    61    2
    33    52    51    1
    34    73    72    2
    35     7     5    1
    36    70    67    1
    37    70    71    1
    38    28    22   am
    39    51    54    1
    40    67    68    1
    41    72    71    1
    42    72    74   am
    43     1     2    1
    44    54    55    1
    45    54    56    1
    46     5     2    1
    47     5     6    1
    48    22    23    2
    49    22    21    1
    50     2     3    1
    51    68    75   am
    52    68    69    2
    53    57    55    1
    54    75    76    1
    55    21    24    1
    56    21    20    1
    57    24    25    1
    58    27    25    1
    59     3     4    2
    60    25    26    1
    61    76    77    1
    62    76    79    1
    63    20    16   am
    64    17    16    2
    65    77    78    2
    66    16    15    1
    67    18    15    1
    68    18    19    1
    69    15    14    1
    70    13    12    1
    71    14    10   am
    72    11    10    2
    73    92    91    1
    74    80    81    1
    75    85    84    1
    76    10     9    1
    77   112   110   am
    78    12     9    1
    79    86    84    1
    80    93    91    1
    81    91    88    1
    82   104   103    2
    83    84    81    1
    84     9     8    1
    85    81    82    1
    86    87    82   am
    87    87    88    1
    88    97    96    2
    89    90    89    2
    90   110   109    1
    91   110   111    2
    92   103   102    1
    93   103   105   am
    94   109   106    1
    95    82    83    2
    96   106   105    1
    97   106   107    1
    98    88    89    1
    99   102   101    1
   100    96   101   am
   101    96    95    1
   102   113   107   am
   103   113   114    1
   104   116   115    2
   105   107   108    2
   106    98    95    1
   107    98    99    1
   108    98   100    1
   109   118   117    1
   110   118   120    1
   111   117   114    1
   112   117   119    1
   113    95    94    1
   114   114   115    1
