@<TRIPOS>MOLECULE
tmp/3a37A00.pdb
 142 137 0 0 0
SMALL
GASTEIGER

@<TRIPOS>ATOM
      1  N         -7.2050   39.3100   26.3580 N.3    21  GLY21      -0.1225
      2  CA        -6.4050   40.3750   25.7890 C.3    21  GLY21       0.1811
      3  C         -4.9800   40.3300   26.2990 C.2    21  GLY21       0.2280
      4  O         -4.6990   40.7500   27.4250 O.2    21  GLY21      -0.2866
      5  N         -0.9100   41.1890   26.5570 N.3    23  GLY23      -0.1210
      6  CA        -0.1860   42.4480   26.6330 C.3    23  GLY23       0.1956
      7  C         -0.8670   43.2140   27.7400 C.2    23  GLY23       0.2612
      8  O         -1.9920   42.8640   28.1180 O.2    23  GLY23      -0.2717
      9  N         -0.2310   44.2400   28.2850 N.am   24  GLY24      -0.1942
     10  CA        -0.9000   44.9740   29.3510 C.3    24  GLY24       0.2014
     11  C         -1.9550   45.9030   28.7710 C.2    24  GLY24       0.2639
     12  O         -1.8170   47.1240   28.8680 O.2    24  GLY24      -0.2714
     13  N         -3.0140   45.3480   28.1800 N.am   25  VAL25      -0.1963
     14  CA        -4.0180   46.1890   27.5450 C.3    25  VAL25       0.1727
     15  C         -5.1540   46.6600   28.4400 C.2    25  VAL25       0.2617
     16  O         -5.5690   47.8090   28.3530 O.2    25  VAL25      -0.2715
     17  CB        -4.6180   45.4960   26.2840 C.3    25  VAL25       0.0290
     18  CG1       -3.5040   44.9890   25.3720 C.3    25  VAL25       0.0023
     19  CG2       -5.5290   44.3740   26.6870 C.3    25  VAL25       0.0023
     20  N         -5.6600   45.7900   29.3020 N.am   26  GLY26      -0.1940
     21  CA        -6.7570   46.1830   30.1740 C.3    26  GLY26       0.2014
     22  C         -7.7660   45.0650   30.3490 C.2    26  GLY26       0.2639
     23  O         -8.9230   45.3020   30.7080 O.2    26  GLY26      -0.2714
     24  N         -7.3050   43.8390   30.1010 N.am   27  LYS27      -0.1963
     25  CA        -8.1130   42.6350   30.2020 C.3    27  LYS27       0.1728
     26  C         -8.8530   42.6190   31.5240 C.2    27  LYS27       0.2617
     27  O        -10.0820   42.5500   31.5340 O.2    27  LYS27      -0.2715
     28  CB        -7.2120   41.4050   30.0530 C.3    27  LYS27       0.0311
     29  CG        -7.9340   40.0650   29.8960 C.3    27  LYS27       0.0038
     30  CD        -8.1850   39.3630   31.2310 C.3    27  LYS27       0.0206
     31  CE        -6.8980   38.8500   31.8380 C.3    27  LYS27       0.1093
     32  NZ        -6.8590   39.1100   33.2920 N.3    27  LYS27      -0.1314
     33  N         -8.1300   42.7190   32.6400 N.am   28  THR28      -0.1937
     34  CA        -8.7920   42.6970   33.9480 C.3    28  THR28       0.2028
     35  C         -9.7840   43.8380   34.1180 C.2    28  THR28       0.2642
     36  O        -10.9570   43.5990   34.4490 O.2    28  THR28      -0.2714
     37  CB        -7.8180   42.7850   35.1310 C.3    28  THR28       0.1808
     38  OG1       -6.7870   41.7980   34.9950 O.3    28  THR28      -0.2208
     39  CG2       -8.5780   42.5410   36.4280 C.3    28  THR28       0.0379
     40  N         -9.3260   45.0730   33.9060 N.am   29  THR29      -0.1950
     41  CA       -10.2250   46.2050   34.0530 C.3    29  THR29       0.1897
     42  C        -11.5160   46.0050   33.2500 C.2    29  THR29       0.2313
     43  O        -12.6270   46.2290   33.7720 O.2    29  THR29      -0.2863
     44  CB        -9.5300   47.5270   33.6430 C.3    29  THR29       0.1794
     45  OG1       -8.7890   48.0260   34.7630 O.3    29  THR29      -0.2208
     46  CG2      -10.5630   48.5990   33.2110 C.3    29  THR29       0.0378
     47  N         -5.6860   39.1600   40.6340 N.3    57  ASN57      -0.1240
     48  CA        -5.9120   40.4590   39.9930 C.3    57  ASN57       0.1653
     49  C         -7.2380   41.0880   40.3310 C.2    57  ASN57       0.2266
     50  O         -7.3380   42.3060   40.4460 O.2    57  ASN57      -0.2867
     51  CB        -5.7780   40.3330   38.4720 C.3    57  ASN57       0.1155
     52  CG        -6.7160   39.3120   37.8870 C.2    57  ASN57       0.2627
     53  OD1       -6.8490   38.2080   38.3990 O.2    57  ASN57      -0.2716
     54  ND2       -7.3640   39.6710   36.7940 N.am   57  ASN57      -0.0877
     55  N         -4.0190   35.3930   31.9040 N.3   132  PRO132     -0.2116
     56  CA        -3.0520   36.1290   31.0760 C.3   132  PRO132      0.1372
     57  C         -2.1350   35.3430   30.1450 C.2   132  PRO132      0.2244
     58  O         -1.5130   35.9300   29.2580 O.2   132  PRO132     -0.2868
     59  CB        -2.2760   36.9510   32.1050 C.3   132  PRO132      0.0268
     60  CG        -2.2650   36.0550   33.2910 C.3   132  PRO132      0.0207
     61  CD        -3.6870   35.5380   33.3350 C.3   132  PRO132      0.0892
     62  N         -8.7460   49.8110   24.3330 N.3   235  ASN235     -0.1225
     63  CA        -8.4660   50.5650   25.5450 C.3   235  ASN235      0.1785
     64  C         -7.2620   51.5180   25.4930 C.2   235  ASN235      0.2597
     65  O         -6.4550   51.4880   24.5600 O.2   235  ASN235     -0.2718
     66  CB        -8.3150   49.5470   26.6890 C.3   235  ASN235      0.1169
     67  CG        -8.2480   50.1920   28.0350 C.2   235  ASN235      0.2627
     68  OD1       -9.1490   50.9220   28.4260 O.2   235  ASN235     -0.2716
     69  ND2       -7.1750   49.9270   28.7610 N.am  235  ASN235     -0.0877
     70  N         -7.1750   52.3780   26.5070 N.am  236  GLN236     -0.1979
     71  CA        -6.0930   53.3500   26.6710 C.3   236  GLN236      0.1601
     72  C         -5.9000   54.3800   25.5710 C.2   236  GLN236      0.2287
     73  O         -4.8080   54.9300   25.3970 O.2   236  GLN236     -0.2864
     74  CB        -4.7890   52.6100   26.9310 C.3   236  GLN236      0.0394
     75  CG        -4.8290   51.9400   28.2710 C.3   236  GLN236      0.0908
     76  CD        -3.7950   50.8610   28.4370 C.2   236  GLN236      0.2608
     77  OE1       -3.9350   49.9960   29.3110 O.2   236  GLN236     -0.2717
     78  NE2       -2.7460   50.8980   27.6140 N.am  236  GLN236     -0.0878
     79  N        -11.3320   55.6250   26.8520 N.3   278  PRO278     -0.2102
     80  CA       -10.3390   56.6570   27.1810 C.3   278  PRO278      0.1504
     81  C         -9.2050   56.2310   28.1050 C.2   278  PRO278      0.2576
     82  O         -9.3380   55.2960   28.8820 O.2   278  PRO278     -0.2718
     83  CB       -11.1920   57.7460   27.8170 C.3   278  PRO278      0.0282
     84  CG       -12.1640   56.9480   28.5980 C.3   278  PRO278      0.0208
     85  CD       -12.5910   55.9070   27.5750 C.3   278  PRO278      0.0893
     86  N         -8.0850   56.9290   28.0110 N.am  279  LEU279     -0.1966
     87  CA        -6.9590   56.6380   28.8640 C.3   279  LEU279      0.1728
     88  C         -7.2060   57.5210   30.0560 C.2   279  LEU279      0.2616
     89  O         -7.3480   58.7270   29.8960 O.2   279  LEU279     -0.2715
     90  CB        -5.6570   57.0400   28.1840 C.3   279  LEU279      0.0311
     91  CG        -4.3770   56.9990   29.0220 C.3   279  LEU279      0.0022
     92  CD1       -4.1630   55.6150   29.5730 C.3   279  LEU279      0.0001
     93  CD2       -3.1930   57.4030   28.1690 C.3   279  LEU279      0.0001
     94  N         -7.2830   56.9280   31.2420 N.am  280  CYS280     -0.1968
     95  CA        -7.5220   57.6910   32.4600 C.3   280  CYS280      0.1712
     96  C         -6.2500   58.2390   33.0810 C.2   280  CYS280      0.2296
     97  O         -5.1330   57.9530   32.6320 O.2   280  CYS280     -0.2864
     98  CB        -8.2420   56.8370   33.5050 C.3   280  CYS280      0.0983
     99  SG       -10.0180   56.6940   33.2630 S.3   280  CYS280     -0.0798
    100  N         -4.0300   57.7740   35.7390 N.3   282  GLY282     -0.1210
    101  CA        -3.6470   56.8230   36.7670 C.3   282  GLY282      0.1956
    102  C         -4.2760   55.4450   36.6530 C.2   282  GLY282      0.2612
    103  O         -4.7120   55.0400   35.5800 O.2   282  GLY282     -0.2717
    104  N         -4.3090   54.7150   37.7630 N.am  283  GLU283     -0.1965
    105  CA        -4.8850   53.3800   37.7780 C.3   283  GLU283      0.1733
    106  C         -6.3790   53.5030   38.0400 C.2   283  GLU283      0.2616
    107  O         -6.8350   54.4830   38.6210 O.2   283  GLU283     -0.2715
    108  CB        -4.2280   52.5150   38.8710 C.3   283  GLU283      0.0429
    109  CG        -2.6900   52.3870   38.7710 C.3   283  GLU283      0.1163
    110  CD        -2.0810   51.4850   39.8550 C.2   283  GLU283      0.3649
    111  OE1       -2.5380   51.5600   41.0180 O.co2 283  GLU283     -0.2457
    112  OE2       -1.1380   50.7150   39.5500 O.co2 283  GLU283     -0.2457
    113  N         -7.1410   52.5200   37.5810 N.am  284  ILE284     -0.1963
    114  CA        -8.5790   52.5140   37.7910 C.3   284  ILE284      0.1727
    115  C         -8.7970   51.3830   38.7620 C.2   284  ILE284      0.2616
    116  O         -8.8250   50.2220   38.3620 O.2   284  ILE284     -0.2715
    117  CB        -9.3540   52.1940   36.5070 C.3   284  ILE284      0.0290
    118  CG1       -9.0150   53.2040   35.4120 C.3   284  ILE284      0.0022
    119  CG2      -10.8440   52.2160   36.7980 C.3   284  ILE284      0.0023
    120  CD1       -9.7800   52.9860   34.1200 C.3   284  ILE284      0.0001
    121  N         -8.9620   51.7240   40.0350 N.am  285  ARG285     -0.1977
    122  CA        -9.1230   50.7230   41.0810 C.3   285  ARG285      0.1597
    123  C        -10.2790   51.0440   42.0160 C.2   285  ARG285      0.2287
    124  O        -10.6090   52.2100   42.2240 O.2   285  ARG285     -0.2864
    125  CB        -7.8160   50.6540   41.8690 C.3   285  ARG285      0.0334
    126  CG        -7.6480   49.4690   42.7880 C.3   285  ARG285      0.0492
    127  CD        -6.1790   49.0790   42.8370 C.3   285  ARG285      0.2205
    128  NE        -5.7010   48.8350   41.4780 N.pl3 285  ARG285     -0.0865
    129  CZ        -4.5140   48.3240   41.1700 C.cat 285  ARG285      0.5346
    130  NH1       -3.6600   47.9930   42.1350 N.pl3 285  ARG285      0.1354
    131  NH2       -4.1810   48.1440   39.8940 N.pl3 285  ARG285      0.1354
    132  N        -15.8490   54.2590   35.1940 N.3   293  PHE293     -0.1241
    133  CA       -15.2030   53.9310   33.9410 C.3   293  PHE293      0.1605
    134  C        -16.1130   53.0140   33.1320 C.2   293  PHE293      0.2264
    135  O        -16.4690   53.3290   32.0020 O.2   293  PHE293     -0.2867
    136  CB       -13.8580   53.2510   34.2210 C.3   293  PHE293      0.0534
    137  CG       -13.0620   52.9410   32.9910 C.ar  293  PHE293     -0.0203
    138  CD1      -12.6660   53.9560   32.1260 C.ar  293  PHE293     -0.0042
    139  CD2      -12.7050   51.6340   32.6950 C.ar  293  PHE293     -0.0042
    140  CE1      -11.9280   53.6850   30.9850 C.ar  293  PHE293     -0.0003
    141  CE2      -11.9640   51.3490   31.5540 C.ar  293  PHE293     -0.0003
    142  CZ       -11.5750   52.3850   30.6960 C.ar  293  PHE293     -0.0000
@<TRIPOS>BOND
     1    62    63    1
     2    65    64    2
     3    18    17    1
     4    73    72    2
     5    64    63    1
     6    64    70   am
     7    63    66    1
     8    72    71    1
     9     2     3    1
    10     2     1    1
    11    17    19    1
    12    17    14    1
    13     3     4    2
    14    70    71    1
    15     5     6    1
    16     6     7    1
    17    71    74    1
    18    66    67    1
    19    79    80    1
    20    79    85    1
    21    74    75    1
    22    80    83    1
    23    80    81    1
    24    14    13    1
    25    14    15    1
    26    85    84    1
    27    78    76   am
    28     7     8    2
    29     7     9   am
    30    83    84    1
    31    86    81   am
    32    86    87    1
    33    67    68    2
    34    67    69   am
    35    81    82    2
    36    93    91    1
    37    13    11   am
    38    90    87    1
    39    90    91    1
    40    75    76    1
    41     9    10    1
    42    16    15    2
    43    76    77    2
    44    15    20   am
    45    11    12    2
    46    11    10    1
    47    87    88    1
    48    91    92    1
    49    58    57    2
    50    20    21    1
    51    29    28    1
    52    29    30    1
    53    89    88    2
    54    28    25    1
    55    88    94   am
    56    24    25    1
    57    24    22   am
    58    57    56    1
    59    21    22    1
    60    25    26    1
    61    22    23    2
    62   142   140   ar
    63   142   141   ar
    64   140   138   ar
    65    56    55    1
    66    56    59    1
    67    30    31    1
    68    94    95    1
    69    26    27    2
    70    26    33   am
    71   141   139   ar
    72    31    32    1
    73    55    61    1
    74   135   134    2
    75    59    60    1
    76   138   137   ar
    77    95    96    1
    78    95    98    1
    79    97    96    2
    80    33    34    1
    81   139   137   ar
    82   137   136    1
    83   134   133    1
    84    46    44    1
    85    42    43    2
    86    42    41    1
    87    99    98    1
    88    60    61    1
    89    44    41    1
    90    44    45    1
    91    40    41    1
    92    40    35   am
    93   133   136    1
    94   133   132    1
    95    34    35    1
    96    34    37    1
    97    35    36    2
    98   120   118    1
    99    38    37    1
   100    37    39    1
   101   118   117    1
   102   103   102    2
   103   100   101    1
   104   117   119    1
   105   117   114    1
   106   102   101    1
   107   102   104   am
   108    54    52   am
   109   113   114    1
   110   113   106   am
   111   104   105    1
   112   105   106    1
   113   105   108    1
   114   114   115    1
   115    52    53    2
   116    52    51    1
   117   106   107    2
   118   116   115    2
   119    51    48    1
   120   115   121   am
   121   109   108    1
   122   109   110    1
   123   112   110   ar
   124   110   111   ar
   125   131   129    1
   126    48    49    1
   127    48    47    1
   128   121   122    1
   129    49    50    2
   130   122   125    1
   131   122   123    1
   132   129   128    2
   133   129   130    1
   134   128   127    1
   135   125   126    1
   136   123   124    2
   137   126   127    1
