@<TRIPOS>MOLECULE
tmp/3a3bA00.pdb
 120 114 0 0 0
SMALL
GASTEIGER

@<TRIPOS>ATOM
      1  N          0.0760   -3.3440   30.3500 N.3    41  VAL41      -0.1245
      2  CA        -0.3080   -4.4420   31.2150 C.3    41  VAL41       0.1561
      3  C         -1.7070   -4.8860   30.8080 C.2    41  VAL41       0.2260
      4  O         -2.6470   -4.1000   30.8750 O.2    41  VAL41      -0.2867
      5  CB        -0.3110   -4.0160   32.6880 C.3    41  VAL41       0.0252
      6  CG1       -0.7390   -5.1560   33.5430 C.3    41  VAL41       0.0019
      7  CG2        1.1080   -3.4810   33.0820 C.3    41  VAL41       0.0019
      8  N         -4.5160  -13.5990   32.9170 N.3    47  CYS47      -0.1221
      9  CA        -3.3550  -13.2690   33.7610 C.3    47  CYS47       0.1808
     10  C         -2.7360  -11.9000   33.3730 C.2    47  CYS47       0.2602
     11  O         -2.4890  -11.6520   32.1670 O.2    47  CYS47      -0.2717
     12  CB        -2.3130  -14.4150   33.6700 C.3    47  CYS47       0.0970
     13  SG        -0.7400  -14.1210   34.5630 S.3    47  CYS47      -0.0800
     14  N         -2.5040  -11.0110   34.3550 N.am   48  SER48      -0.1938
     15  CA        -1.8050   -9.7480   34.0700 C.3    48  SER48       0.2055
     16  C         -0.3750  -10.0440   33.6930 C.2    48  SER48       0.2643
     17  O          0.3990  -10.6570   34.4790 O.2    48  SER48      -0.2714
     18  CB        -1.7840   -8.7920   35.2670 C.3    48  SER48       0.2130
     19  OG        -3.0790   -8.3080   35.5070 O.3    48  SER48      -0.2179
     20  N         -0.0220   -9.5670   32.5030 N.am   49  LEU49      -0.1963
     21  CA         1.3250   -9.6610   31.9880 C.3    49  LEU49       0.1728
     22  C          1.6400   -8.3720   31.2690 C.2    49  LEU49       0.2616
     23  O          0.7440   -7.7040   30.7090 O.2    49  LEU49      -0.2715
     24  CB         1.4350  -10.7780   30.9560 C.3    49  LEU49       0.0311
     25  CG         1.1540  -12.2450   31.3270 C.3    49  LEU49       0.0022
     26  CD1        1.2550  -13.0490   30.0580 C.3    49  LEU49       0.0001
     27  CD2        2.1850  -12.7110   32.3760 C.3    49  LEU49       0.0001
     28  N          2.9290   -8.0700   31.2080 N.am   50  THR50      -0.1951
     29  CA         3.4280   -6.8140   30.6210 C.3    50  THR50       0.1897
     30  C          4.0580   -7.0150   29.2700 C.2    50  THR50       0.2313
     31  O          4.9430   -7.8660   29.1120 O.2    50  THR50      -0.2863
     32  CB         4.4830   -6.1920   31.5770 C.3    50  THR50       0.1794
     33  OG1        3.9150   -6.1290   32.8920 O.3    50  THR50      -0.2208
     34  CG2        4.8750   -4.8090   31.1320 C.3    50  THR50       0.0378
     35  N          6.6130   -6.7120   26.6430 N.3    52  VAL52      -0.1245
     36  CA         8.0440   -6.3300   26.6620 C.3    52  VAL52       0.1561
     37  C          8.5630   -5.9320   25.2800 C.2    52  VAL52       0.2260
     38  O          9.5440   -5.2230   25.1530 O.2    52  VAL52      -0.2867
     39  CB         8.9310   -7.4640   27.2860 C.3    52  VAL52       0.0252
     40  CG1        8.3830   -7.8110   28.6310 C.3    52  VAL52       0.0019
     41  CG2        8.9410   -8.6800   26.4330 C.3    52  VAL52       0.0019
     42  N          7.2170  -11.7590   28.9430 N.3    62  ASP62      -0.1225
     43  CA         8.1230  -12.6720   29.6690 C.3    62  ASP62       0.1805
     44  C          7.3270  -13.2810   30.8010 C.2    62  ASP62       0.2598
     45  O          6.7590  -12.5740   31.5900 O.2    62  ASP62      -0.2718
     46  CB         9.3230  -11.9250   30.2700 C.3    62  ASP62       0.1424
     47  CG        10.3780  -11.5900   29.2380 C.2    62  ASP62       0.3668
     48  OD1       10.7120  -12.4430   28.3880 O.co2  62  ASP62      -0.2456
     49  OD2       10.8930  -10.4660   29.3000 O.co2  62  ASP62      -0.2456
     50  N          7.2550  -14.5930   30.8450 N.am   63  ILE63      -0.1966
     51  CA         6.5390  -15.2340   31.9390 C.3    63  ILE63       0.1727
     52  C          7.6070  -15.6500   32.9140 C.2    63  ILE63       0.2616
     53  O          8.4000  -16.5440   32.6210 O.2    63  ILE63      -0.2715
     54  CB         5.7740  -16.5430   31.5110 C.3    63  ILE63       0.0290
     55  CG1        4.9660  -16.3830   30.1930 C.3    63  ILE63       0.0022
     56  CG2        4.9080  -17.0640   32.7010 C.3    63  ILE63       0.0023
     57  CD1        4.0530  -15.2260   30.1960 C.3    63  ILE63       0.0001
     58  N          7.6450  -14.9980   34.0460 N.am   64  ASP64      -0.1957
     59  CA         8.6340  -15.3330   35.0570 C.3    64  ASP64       0.1840
     60  C          7.9610  -15.3680   36.4390 C.2    64  ASP64       0.2622
     61  O          7.8060  -16.4370   36.9820 O.2    64  ASP64      -0.2715
     62  CB         9.8380  -14.3820   34.9900 C.3    64  ASP64       0.1450
     63  CG         9.4500  -12.9640   34.6210 C.2    64  ASP64       0.3671
     64  OD1        8.3900  -12.4940   35.0840 O.co2  64  ASP64      -0.2456
     65  OD2       10.2110  -12.3270   33.8430 O.co2  64  ASP64      -0.2456
     66  N          7.5220  -14.2250   36.9680 N.am   65  GLN65      -0.1963
     67  CA         6.7130  -14.2090   38.1810 C.3    65  GLN65       0.1733
     68  C          5.4930  -15.1530   38.1590 C.2    65  GLN65       0.2616
     69  O          5.1360  -15.7330   39.1880 O.2    65  GLN65      -0.2715
     70  CB         6.2420  -12.7880   38.4640 C.3    65  GLN65       0.0408
     71  CG         5.3340  -12.6530   39.6560 C.3    65  GLN65       0.0908
     72  CD         4.9530  -11.2140   39.9500 C.2    65  GLN65       0.2608
     73  OE1        5.2310  -10.2840   39.1620 O.2    65  GLN65      -0.2717
     74  NE2        4.3110  -11.0140   41.0960 N.am   65  GLN65      -0.0878
     75  N          4.8560  -15.3100   36.9990 N.am   66  ALA66      -0.1977
     76  CA         3.6360  -16.1470   36.8830 C.3    66  ALA66       0.1597
     77  C          3.9240  -17.6140   36.5580 C.2    66  ALA66       0.2287
     78  O          2.9990  -18.4390   36.4820 O.2    66  ALA66      -0.2864
     79  CB         2.6860  -15.5310   35.8020 C.3    66  ALA66       0.0319
     80  N          2.4780  -20.7860   38.6210 N.3    69  THR69      -0.1203
     81  CA         1.1050  -20.6090   39.1210 C.3    69  THR69       0.1994
     82  C          0.0970  -20.2930   38.0030 C.2    69  THR69       0.2618
     83  O         -1.0040  -19.7540   38.2760 O.2    69  THR69      -0.2717
     84  CB         1.0890  -19.4510   40.0880 C.3    69  THR69       0.1784
     85  OG1        1.8060  -18.3420   39.5020 O.3    69  THR69      -0.2211
     86  CG2        1.7850  -19.8760   41.4310 C.3    69  THR69       0.0376
     87  N          0.4870  -20.5960   36.7570 N.am   70  THR70      -0.1952
     88  CA        -0.3580  -20.3450   35.5810 C.3    70  THR70       0.1897
     89  C         -0.0740  -21.4550   34.6080 C.2    70  THR70       0.2313
     90  O          0.8510  -22.2110   34.8140 O.2    70  THR70      -0.2863
     91  CB        -0.1360  -18.9290   34.9420 C.3    70  THR70       0.1794
     92  OG1        1.2170  -18.7990   34.5050 O.3    70  THR70      -0.2208
     93  CG2       -0.4940  -17.8010   35.8920 C.3    70  THR70       0.0378
     94  N         -9.1090   -9.0540   38.3360 N.3    92  THR92      -0.1203
     95  CA        -7.8870   -8.3500   38.6460 C.3    92  THR92       0.1994
     96  C         -6.6900   -8.8200   37.8280 C.2    92  THR92       0.2618
     97  O         -5.7060   -8.0630   37.6890 O.2    92  THR92      -0.2717
     98  CB        -7.5560   -8.4260   40.1520 C.3    92  THR92       0.1784
     99  OG1       -7.0940   -9.7460   40.4690 O.3    92  THR92      -0.2211
    100  CG2       -8.7850   -8.1020   41.0080 C.3    92  THR92       0.0376
    101  N         -6.7280  -10.0540   37.3010 N.am   93  GLY93      -0.1942
    102  CA        -5.5820  -10.5680   36.5780 C.3    93  GLY93       0.2014
    103  C         -4.5810  -11.2810   37.4600 C.2    93  GLY93       0.2639
    104  O         -3.5230  -11.7230   36.9940 O.2    93  GLY93      -0.2714
    105  N         -4.9460  -11.4160   38.7430 N.am   94  ASN94      -0.1958
    106  CA        -4.1840  -12.2410   39.7010 C.3    94  ASN94       0.1819
    107  C         -4.7850  -13.6410   39.6950 C.2    94  ASN94       0.2621
    108  O         -5.8360  -13.8590   40.2670 O.2    94  ASN94      -0.2715
    109  CB        -4.2180  -11.6120   41.1190 C.3    94  ASN94       0.1195
    110  CG        -3.2750  -12.3260   42.0890 C.2    94  ASN94       0.2630
    111  OD1       -2.0900  -12.4530   41.8220 O.2    94  ASN94      -0.2716
    112  ND2       -3.8170  -12.8290   43.1910 N.am   94  ASN94      -0.0877
    113  N         -4.1290  -14.5820   39.0070 N.am   95  ILE95      -0.1977
    114  CA        -4.6100  -15.9490   38.9020 C.3    95  ILE95       0.1596
    115  C         -4.4320  -16.6100   40.2640 C.2    95  ILE95       0.2287
    116  O         -3.3390  -16.5800   40.8120 O.2    95  ILE95      -0.2864
    117  CB        -3.8440  -16.7710   37.8360 C.3    95  ILE95       0.0276
    118  CG1       -4.1010  -16.2340   36.3930 C.3    95  ILE95       0.0022
    119  CG2       -4.1950  -18.2710   37.9140 C.3    95  ILE95       0.0022
    120  CD1       -5.5110  -15.9530   36.0400 C.3    95  ILE95       0.0001
@<TRIPOS>BOND
     1    38    37    2
     2    37    36    1
     3    41    39    1
     4    35    36    1
     5    36    39    1
     6    39    40    1
     7    48    47   ar
     8    42    43    1
     9    31    30    2
    10    47    49   ar
    11    47    46    1
    12    30    29    1
    13    43    46    1
    14    43    44    1
    15    26    25    1
    16    55    57    1
    17    55    54    1
    18     1     2    1
    19    29    28    1
    20    29    32    1
    21    23    22    2
    22    44    50   am
    23    44    45    2
    24     3     4    2
    25     3     2    1
    26    50    51    1
    27    24    25    1
    28    24    21    1
    29    34    32    1
    30    28    22   am
    31     2     5    1
    32    22    21    1
    33    25    27    1
    34    54    51    1
    35    54    56    1
    36    32    33    1
    37    51    52    1
    38    21    20    1
    39    11    10    2
    40    20    16   am
    41    53    52    2
    42     5     7    1
    43     5     6    1
    44    52    58   am
    45     8     9    1
    46    10     9    1
    47    10    14   am
    48    12     9    1
    49    12    13    1
    50    16    15    1
    51    16    17    2
    52    65    63   ar
    53    58    59    1
    54    15    14    1
    55    15    18    1
    56    92    91    1
    57    89    90    2
    58    89    88    1
    59    63    62    1
    60    63    64   ar
    61    91    88    1
    62    91    93    1
    63    62    59    1
    64    59    60    1
    65    18    19    1
    66    88    87    1
    67    79    76    1
    68   120   118    1
    69   118   117    1
    70    60    66   am
    71    60    61    2
    72    78    77    2
    73    77    76    1
    74   102   101    1
    75   102   103    1
    76    87    82   am
    77    76    75    1
    78    66    67    1
    79   104   103    2
    80    75    68   am
    81   101    96   am
    82   103   105   am
    83    97    96    2
    84    96    95    1
    85   117   119    1
    86   117   114    1
    87    82    83    2
    88    82    81    1
    89    68    67    1
    90    68    69    2
    91    67    70    1
    92    94    95    1
    93    70    71    1
    94    80    81    1
    95    95    98    1
    96   105   106    1
    97   114   113    1
    98   114   115    1
    99   113   107   am
   100    81    84    1
   101    73    72    2
   102    85    84    1
   103    71    72    1
   104   107   106    1
   105   107   108    2
   106   106   109    1
   107    72    74   am
   108    84    86    1
   109    98    99    1
   110    98   100    1
   111   115   116    2
   112   109   110    1
   113   111   110    2
   114   110   112   am
