@<TRIPOS>MOLECULE
tmp/3a3eA00.pdb
 145 133 0 0 0
SMALL
GASTEIGER

@<TRIPOS>ATOM
      1  N        -29.9730   -6.3730   24.6360 N.3    42  ALA42      -0.1231
      2  CA       -29.3350   -6.0510   25.9340 C.3    42  ALA42       0.1694
      3  C        -29.3190   -7.2190   26.9060 C.2    42  ALA42       0.2592
      4  O        -29.1840   -8.3440   26.4800 O.2    42  ALA42      -0.2718
      5  CB       -29.9250   -4.8410   26.5330 C.3    42  ALA42       0.0304
      6  N        -29.4580   -6.9870   28.2200 N.am   43  SER43      -0.1952
      7  CA       -29.3280   -8.0930   29.1500 C.3    43  SER43       0.1924
      8  C        -30.3760   -9.1720   29.0020 C.2    43  SER43       0.2314
      9  O        -30.2940  -10.1810   29.6730 O.2    43  SER43      -0.2863
     10  CB       -29.3100   -7.6370   30.5980 C.3    43  SER43       0.2116
     11  OG       -28.1460   -6.9000   30.8950 O.3    43  SER43      -0.2180
     12  N        -15.5340    2.4740   34.2940 N.3   124  MET124     -0.1245
     13  CA       -16.5480    2.1000   35.3470 C.3   124  MET124      0.1570
     14  C        -17.0760    0.6490   35.4780 C.2   124  MET124      0.2261
     15  O        -16.8870   -0.2160   34.6120 O.2   124  MET124     -0.2867
     16  CB       -17.7380    3.0970   35.3830 C.3   124  MET124      0.0387
     17  CG       -18.6910    2.9080   36.5920 C.3   124  MET124      0.0595
     18  SD       -19.3400    4.4400   37.3390 S.3   124  MET124     -0.1393
     19  CE       -17.9040    5.5580   37.4340 C.3   124  MET124      0.0692
     20  N        -19.6820   -1.9280   35.6560 N.3   126  PHE126     -0.1227
     21  CA       -20.8860   -2.7210   35.3110 C.3   126  PHE126      0.1736
     22  C        -20.4600   -3.7430   34.2590 C.2   126  PHE126      0.2595
     23  O        -20.8190   -4.9130   34.3020 O.2   126  PHE126     -0.2718
     24  CB       -21.9910   -1.8170   34.7620 C.3   126  PHE126      0.0547
     25  CG       -23.0460   -1.4720   35.7830 C.ar  126  PHE126     -0.0202
     26  CD1      -23.0110   -0.2460   36.4600 C.ar  126  PHE126     -0.0042
     27  CD2      -24.0680   -2.3930   36.0880 C.ar  126  PHE126     -0.0042
     28  CE1      -23.9870    0.0580   37.4190 C.ar  126  PHE126     -0.0003
     29  CE2      -25.0360   -2.0940   37.0310 C.ar  126  PHE126     -0.0003
     30  CZ       -24.9990   -0.8680   37.7010 C.ar  126  PHE126     -0.0000
     31  N        -19.7130   -3.2320   33.2850 N.am  127  ASN127     -0.1974
     32  CA       -18.7480   -3.9970   32.5510 C.3   127  ASN127      0.1688
     33  C        -17.4800   -4.0750   33.4180 C.2   127  ASN127      0.2292
     34  O        -17.1620   -3.1830   34.2190 O.2   127  ASN127     -0.2864
     35  CB       -18.4560   -3.3320   31.2000 C.3   127  ASN127      0.1181
     36  CG       -16.9810   -3.3220   30.8680 C.2   127  ASN127      0.2629
     37  OD1      -16.2780   -4.3340   31.0520 O.2   127  ASN127     -0.2716
     38  ND2      -16.4900   -2.1690   30.3910 N.am  127  ASN127     -0.0877
     39  N        -31.0710  -10.3910   39.3170 N.3   268  LYS268     -0.1231
     40  CA       -30.4180   -9.0800   39.4990 C.3   268  LYS268      0.1693
     41  C        -29.6190   -8.6160   38.2530 C.2   268  LYS268      0.2592
     42  O        -29.1110   -7.4990   38.2040 O.2   268  LYS268     -0.2718
     43  CB       -29.5780   -9.1210   40.7680 C.3   268  LYS268      0.0285
     44  CG       -28.1710   -8.5490   40.6020 C.3   268  LYS268      0.0035
     45  CD       -27.4260   -8.3430   41.9980 C.3   268  LYS268      0.0206
     46  CE       -26.2840   -7.2900   41.8880 C.3   268  LYS268      0.1093
     47  NZ       -25.6610   -7.3040   40.4910 N.3   268  LYS268     -0.1314
     48  N        -29.5440   -9.4710   37.2290 N.am  269  SER269     -0.1952
     49  CA       -28.8420   -9.1430   35.9990 C.3   269  SER269      0.1924
     50  C        -27.3750   -8.9110   36.2190 C.2   269  SER269      0.2314
     51  O        -26.9040   -7.8350   35.9590 O.2   269  SER269     -0.2863
     52  CB       -29.3670   -7.8450   35.4050 C.3   269  SER269      0.2116
     53  OG       -29.5180   -8.0200   34.0400 O.3   269  SER269     -0.2180
     54  N        -23.9230   -8.9770   34.9970 N.3   271  ASN271     -0.1240
     55  CA       -23.0410   -9.1160   33.7970 C.3   271  ASN271      0.1653
     56  C        -21.8760  -10.1140   33.9640 C.2   271  ASN271      0.2266
     57  O        -21.7530  -11.0570   33.1980 O.2   271  ASN271     -0.2867
     58  CB       -22.5830   -7.7600   33.3520 C.3   271  ASN271      0.1155
     59  CG       -23.7490   -6.9090   32.9720 C.2   271  ASN271      0.2627
     60  OD1      -24.7810   -7.4450   32.5770 O.2   271  ASN271     -0.2716
     61  ND2      -23.6440   -5.5970   33.1440 N.am  271  ASN271     -0.0877
     62  N        -23.7130  -11.7650   28.2430 N.3   319  SER319     -0.1217
     63  CA       -24.4630  -10.7920   28.9670 C.3   319  SER319      0.1889
     64  C        -25.3450   -9.8690   28.0890 C.2   319  SER319      0.2288
     65  O        -26.2520   -9.1830   28.5870 O.2   319  SER319     -0.2866
     66  CB       -23.4600   -9.9800   29.7010 C.3   319  SER319      0.2089
     67  OG       -22.6160   -9.4130   28.7050 O.3   319  SER319     -0.2183
     68  N        -24.2930   -7.1850   26.7540 N.3   321  LEU321     -0.1245
     69  CA       -23.7790   -5.8280   26.7230 C.3   321  LEU321      0.1561
     70  C        -23.4540   -5.3090   25.3580 C.2   321  LEU321      0.2260
     71  O        -23.5980   -4.1380   25.0910 O.2   321  LEU321     -0.2867
     72  CB       -22.5520   -5.6530   27.6160 C.3   321  LEU321      0.0270
     73  CG       -22.8550   -5.5030   29.1240 C.3   321  LEU321      0.0019
     74  CD1      -21.5590   -5.2700   29.9220 C.3   321  LEU321      0.0001
     75  CD2      -23.8020   -4.3390   29.3480 C.3   321  LEU321      0.0001
     76  N        -22.9030   -4.1510   21.6100 N.3   323  ARG323     -0.1245
     77  CA       -23.8480   -3.5250   20.6850 C.3   323  ARG323      0.1563
     78  C        -23.7400   -4.1420   19.3480 C.2   323  ARG323      0.2260
     79  O        -24.2980   -3.5740   18.4050 O.2   323  ARG323     -0.2867
     80  CB       -23.6960   -1.9940   20.5370 C.3   323  ARG323      0.0307
     81  CG       -24.4120   -1.2210   21.6610 C.3   323  ARG323      0.0489
     82  CD       -24.4070    0.2460   21.4520 C.3   323  ARG323      0.2205
     83  NE       -24.9330    0.9090   22.6240 N.pl3 323  ARG323     -0.0865
     84  CZ       -26.1020    1.5760   22.6860 C.cat 323  ARG323      0.5346
     85  NH1      -26.9210    1.6790   21.6200 N.pl3 323  ARG323      0.1354
     86  NH2      -26.4470    2.1580   23.8290 N.pl3 323  ARG323      0.1354
     87  N        -35.0950   -6.9120   39.1350 N.3   360  THR360     -0.1218
     88  CA       -34.8950   -5.6130   38.5600 C.3   360  THR360      0.1862
     89  C        -36.2250   -5.0200   38.1530 C.2   360  THR360      0.2287
     90  O        -36.2540   -3.9540   37.5660 O.2   360  THR360     -0.2866
     91  CB       -34.0500   -5.7700   37.3000 C.3   360  THR360      0.1770
     92  OG1      -34.5990   -6.8510   36.5240 O.3   360  THR360     -0.2211
     93  CG2      -32.6400   -6.1140   37.6850 C.3   360  THR360      0.0375
     94  N        -40.7470   -1.6710   38.8070 N.3   364  ARG364     -0.1245
     95  CA       -40.9410   -1.1980   37.4250 C.3   364  ARG364      0.1563
     96  C        -42.3160   -0.5740   37.2410 C.2   364  ARG364      0.2260
     97  O        -43.3620   -1.2630   37.2030 O.2   364  ARG364     -0.2867
     98  CB       -40.6520   -2.2790   36.3750 C.3   364  ARG364      0.0307
     99  CG       -39.9990   -1.7080   35.0890 C.3   364  ARG364      0.0489
    100  CD       -40.2130   -2.7180   33.9840 C.3   364  ARG364      0.2205
    101  NE       -39.8330   -2.2880   32.6380 N.pl3 364  ARG364     -0.0865
    102  CZ       -38.5780   -2.1700   32.2260 C.cat 364  ARG364      0.5346
    103  NH1      -38.3340   -1.7950   30.9920 N.pl3 364  ARG364      0.1354
    104  NH2      -37.5800   -2.4220   33.0520 N.pl3 364  ARG364      0.1354
    105  N        -35.0700   -8.1050   32.4460 N.3   380  THR380     -0.1218
    106  CA       -34.9330   -6.8460   31.7670 C.3   380  THR380      0.1862
    107  C        -33.6280   -6.8110   30.9920 C.2   380  THR380      0.2287
    108  O        -32.6630   -7.5670   31.2940 O.2   380  THR380     -0.2866
    109  CB       -34.8660   -5.7220   32.7820 C.3   380  THR380      0.1770
    110  OG1      -34.0310   -6.1440   33.8320 O.3   380  THR380     -0.2211
    111  CG2      -36.2700   -5.3890   33.3790 C.3   380  THR380      0.0375
    112  N        -31.2020   -3.3980   29.5780 N.3   382  SER382     -0.1202
    113  CA       -31.1240   -1.9320   29.4880 C.3   382  SER382      0.2020
    114  C        -29.7480   -1.4710   28.9640 C.2   382  SER382      0.2619
    115  O        -28.7030   -1.9710   29.3930 O.2   382  SER382     -0.2717
    116  CB       -31.2770   -1.3340   30.8760 C.3   382  SER382      0.2103
    117  OG       -32.5440   -1.6690   31.3550 O.3   382  SER382     -0.2182
    118  N        -29.7660   -0.5120   28.0460 N.am  383  LEU383     -0.1965
    119  CA       -28.5730    0.2330   27.6420 C.3   383  LEU383      0.1728
    120  C        -29.1200    1.6480   27.3060 C.2   383  LEU383      0.2616
    121  O        -30.3040    1.8400   27.1560 O.2   383  LEU383     -0.2715
    122  CB       -28.0140   -0.3930   26.3740 C.3   383  LEU383      0.0311
    123  CG       -27.6680   -1.9010   26.3630 C.3   383  LEU383      0.0022
    124  CD1      -27.2130   -2.3200   25.0120 C.3   383  LEU383      0.0001
    125  CD2      -26.5490   -2.1650   27.3510 C.3   383  LEU383      0.0001
    126  N        -28.2700    2.6280   27.1150 N.am  384  LYS384     -0.1977
    127  CA       -28.7490    3.9070   26.7050 C.3   384  LYS384      0.1596
    128  C        -29.5100    3.6590   25.4100 C.2   384  LYS384      0.2287
    129  O        -28.9480    3.0940   24.4560 O.2   384  LYS384     -0.2864
    130  CB       -27.5510    4.8410   26.5500 C.3   384  LYS384      0.0298
    131  CG       -27.8120    6.1690   25.9070 C.3   384  LYS384      0.0038
    132  CD       -26.5100    7.0210   25.8320 C.3   384  LYS384      0.0206
    133  CE       -26.3190    7.7870   24.4280 C.3   384  LYS384      0.1093
    134  NZ       -26.1830    9.3450   24.5160 N.3   384  LYS384     -0.1314
    135  N        -38.6170    8.1930   31.5860 N.3   421  ARG421     -0.1245
    136  CA       -39.2420    6.8850   31.4610 C.3   421  ARG421      0.1563
    137  C        -40.7650    6.9630   31.3350 C.2   421  ARG421      0.2260
    138  O        -41.4090    5.9270   31.1960 O.2   421  ARG421     -0.2867
    139  CB       -38.8090    5.9330   32.6090 C.3   421  ARG421      0.0307
    140  CG       -37.3660    5.3410   32.4700 C.3   421  ARG421      0.0489
    141  CD       -36.7640    4.8880   33.8270 C.3   421  ARG421      0.2205
    142  NE       -35.9000    3.6800   33.7640 N.pl3 421  ARG421     -0.0865
    143  CZ       -36.3310    2.4100   33.6320 C.cat 421  ARG421      0.5346
    144  NH1      -35.4680    1.3990   33.6000 N.pl3 421  ARG421      0.1354
    145  NH2      -37.6270    2.1330   33.5160 N.pl3 421  ARG421      0.1354
@<TRIPOS>BOND
     1    79    78    2
     2    78    77    1
     3    80    77    1
     4    80    81    1
     5    77    76    1
     6    82    81    1
     7    82    83    1
     8    85    84    1
     9    83    84    2
    10    84    86    1
    11   133   134    1
    12   133   132    1
    13   129   128    2
    14     1     2    1
    15   124   123    1
    16    71    70    2
    17    70    69    1
    18   128   127    1
    19   132   131    1
    20   131   130    1
    21     2     5    1
    22     2     3    1
    23   123   122    1
    24   123   125    1
    25   122   119    1
    26     4     3    2
    27   130   127    1
    28   127   126    1
    29    69    68    1
    30    69    72    1
    31     3     6   am
    32   126   120   am
    33   121   120    2
    34   120   119    1
    35    72    73    1
    36   119   118    1
    37   118   114   am
    38    64    65    2
    39    64    63    1
    40     6     7    1
    41    62    63    1
    42    67    66    1
    43   114   115    2
    44   114   113    1
    45    63    66    1
    46     8     7    1
    47     8     9    2
    48    73    75    1
    49    73    74    1
    50     7    10    1
    51   113   112    1
    52   113   116    1
    53    38    36   am
    54    10    11    1
    55    36    37    2
    56    36    35    1
    57   116   117    1
    58   107   108    2
    59   107   106    1
    60   103   102    1
    61   138   137    2
    62    35    32    1
    63   137   136    1
    64   136   135    1
    65   136   139    1
    66   106   105    1
    67   106   109    1
    68   102   101    2
    69   102   104    1
    70   140   139    1
    71   140   141    1
    72    32    31    1
    73    32    33    1
    74    60    59    2
    75   101   100    1
    76   109   111    1
    77   109   110    1
    78    59    61   am
    79    59    58    1
    80    57    56    2
    81    31    22   am
    82    58    55    1
    83    33    34    2
    84   145   143    1
    85   144   143    1
    86   143   142    2
    87   142   141    1
    88    55    56    1
    89    55    54    1
    90   100    99    1
    91    53    52    1
    92    22    23    2
    93    22    21    1
    94    12    13    1
    95    15    14    2
    96    24    21    1
    97    24    25    1
    98    99    98    1
    99    21    20    1
   100    13    16    1
   101    13    14    1
   102    16    17    1
   103    52    49    1
   104    25    27   ar
   105    25    26   ar
   106    51    50    2
   107    49    50    1
   108    49    48    1
   109    27    29   ar
   110    98    95    1
   111    26    28   ar
   112    92    91    1
   113    17    18    1
   114    29    30   ar
   115    97    96    2
   116    48    41   am
   117    96    95    1
   118    91    93    1
   119    91    88    1
   120    18    19    1
   121    28    30   ar
   122    95    94    1
   123    90    89    2
   124    89    88    1
   125    42    41    2
   126    41    40    1
   127    88    87    1
   128    39    40    1
   129    40    43    1
   130    47    46    1
   131    44    43    1
   132    44    45    1
   133    46    45    1
