@<TRIPOS>MOLECULE
tmp/3a3eB00.pdb
 127 117 0 0 0
SMALL
GASTEIGER

@<TRIPOS>ATOM
      1  N        -24.0120    5.8840    9.9750 N.3    42  ALA42      -0.1231
      2  CA       -22.6600    5.5580    9.5690 C.3    42  ALA42       0.1694
      3  C        -22.1280    6.7950    8.8570 C.2    42  ALA42       0.2592
      4  O        -22.3830    7.9500    9.2990 O.2    42  ALA42      -0.2718
      5  CB       -22.5990    4.2880    8.6320 C.3    42  ALA42       0.0304
      6  N        -21.4330    6.5640    7.7390 N.am   43  SER43      -0.1952
      7  CA       -20.6390    7.6700    7.2320 C.3    43  SER43       0.1924
      8  C        -21.4810    8.7510    6.5300 C.2    43  SER43       0.2314
      9  O        -20.9330    9.7310    6.0800 O.2    43  SER43      -0.2863
     10  CB       -19.4620    7.1940    6.3610 C.3    43  SER43       0.2116
     11  OG       -18.4440    6.6430    7.1660 O.3    43  SER43      -0.2180
     12  N         -8.3330    6.7460   13.1510 N.3   124  PRO124     -0.2116
     13  CA        -8.9150    7.4580   14.3090 C.3   124  PRO124      0.1372
     14  C         -7.8990    8.5290   14.7430 C.2   124  PRO124      0.2244
     15  O         -6.6900    8.2440   14.7520 O.2   124  PRO124     -0.2868
     16  CB        -9.1380    6.3490   15.3640 C.3   124  PRO124      0.0268
     17  CG        -9.1010    4.9880   14.5310 C.3   124  PRO124      0.0207
     18  CD        -8.1480    5.2940   13.3710 C.3   124  PRO124      0.0892
     19  N        -14.2030   10.3370   -0.6160 N.3   263  LYS263     -0.1231
     20  CA       -13.5230    9.1450   -0.1860 C.3   263  LYS263      0.1693
     21  C        -14.0130    8.5450    1.1350 C.2   263  LYS263      0.2592
     22  O        -13.7000    7.4040    1.4460 O.2   263  LYS263     -0.2718
     23  CB       -12.0280    9.4770   -0.0570 C.3   263  LYS263      0.0285
     24  CG       -11.2420    9.3040   -1.3890 C.3   263  LYS263      0.0035
     25  CD        -9.7290    9.2750   -1.1810 C.3   263  LYS263      0.0206
     26  CE        -8.9650    9.6620   -2.4620 C.3   263  LYS263      0.1093
     27  NZ        -7.5940   10.2700   -2.1200 N.3   263  LYS263     -0.1314
     28  N        -14.7320    9.3480    1.9260 N.am  264  SER264     -0.1952
     29  CA       -15.1740    8.9300    3.2330 C.3   264  SER264      0.1924
     30  C        -14.0200    8.7520    4.2030 C.2   264  SER264      0.2314
     31  O        -13.8990    7.7600    4.8850 O.2   264  SER264     -0.2863
     32  CB       -15.9870    7.6470    3.1340 C.3   264  SER264      0.2116
     33  OG       -17.0740    7.7470    4.0480 O.3   264  SER264     -0.2180
     34  N        -12.4440    9.3070    7.5570 N.3   266  ASN266     -0.1240
     35  CA       -12.9290    9.5520    8.9450 C.3   266  ASN266      0.1653
     36  C        -12.1680   10.6000    9.6690 C.2   266  ASN266      0.2266
     37  O        -12.6990   11.2800   10.5710 O.2   266  ASN266     -0.2867
     38  CB       -12.8880    8.2710    9.7680 C.3   266  ASN266      0.1155
     39  CG       -13.6870    7.1830    9.1340 C.2   266  ASN266      0.2627
     40  OD1      -14.5060    7.4380    8.2460 O.2   266  ASN266     -0.2716
     41  ND2      -13.4600    5.9800    9.5380 N.am  266  ASN266     -0.0877
     42  N        -17.7640   11.6140   11.9070 N.3   314  SER314     -0.1217
     43  CA       -17.7030   10.6350   10.8130 C.3   314  SER314      0.1889
     44  C        -18.8050    9.6070   10.8260 C.2   314  SER314      0.2288
     45  O        -18.9550    8.8310    9.8500 O.2   314  SER314     -0.2866
     46  CB       -16.3960    9.8800   10.9110 C.3   314  SER314      0.2089
     47  OG       -16.1870    9.4700   12.2520 O.3   314  SER314     -0.2183
     48  N        -18.8360    6.9310   12.6720 N.3   316  LEU316     -0.1245
     49  CA       -18.4250    5.6070   13.1760 C.3   316  LEU316      0.1561
     50  C        -19.2220    5.1570   14.4110 C.2   316  LEU316      0.2260
     51  O        -19.6410    4.0030   14.5240 O.2   316  LEU316     -0.2867
     52  CB       -16.9210    5.5420   13.4960 C.3   316  LEU316      0.0270
     53  CG       -15.8740    5.6940   12.3770 C.3   316  LEU316      0.0019
     54  CD1      -14.4120    5.8350   12.9100 C.3   316  LEU316      0.0001
     55  CD2      -16.0030    4.4920   11.4630 C.3   316  LEU316      0.0001
     56  N        -21.4530    3.7140   17.3710 N.3   318  ARG318     -0.1245
     57  CA       -22.7320    2.9490   17.4420 C.3   318  ARG318      0.1563
     58  C        -23.8530    3.6320   18.3070 C.2   318  ARG318      0.2260
     59  O        -24.9460    3.0600   18.4870 O.2   318  ARG318     -0.2867
     60  CB       -22.4910    1.5080   17.9060 C.3   318  ARG318      0.0307
     61  CG       -21.6540    0.7190   16.9050 C.3   318  ARG318      0.0489
     62  CD       -22.5500   -0.2350   16.2470 C.3   318  ARG318      0.2205
     63  NE       -21.8750   -0.9510   15.2110 N.pl3 318  ARG318     -0.0865
     64  CZ       -22.4050   -1.9590   14.5220 C.cat 318  ARG318      0.5346
     65  NH1      -23.6300   -2.4350   14.8030 N.pl3 318  ARG318      0.1354
     66  NH2      -21.6890   -2.5380   13.5540 N.pl3 318  ARG318      0.1354
     67  N        -16.3490    6.9240   -3.3990 N.3   355  THR355     -0.1218
     68  CA       -16.7190    5.5900   -2.8990 C.3   355  THR355      0.1862
     69  C        -17.7920    4.8590   -3.6650 C.2   355  THR355      0.2287
     70  O        -18.0250    3.6960   -3.3920 O.2   355  THR355     -0.2866
     71  CB       -17.1570    5.6090   -1.4310 C.3   355  THR355      0.1770
     72  OG1      -18.2900    6.4700   -1.2930 O.3   355  THR355     -0.2211
     73  CG2      -16.0290    6.1110   -0.5490 C.3   355  THR355      0.0375
     74  N        -20.0480    0.8360   -7.3180 N.3   359  ARG359     -0.1245
     75  CA       -21.2400    0.3890   -6.5920 C.3   359  ARG359      0.1563
     76  C        -22.2800   -0.3930   -7.4240 C.2   359  ARG359      0.2260
     77  O        -23.0220    0.1710   -8.2430 O.2   359  ARG359     -0.2867
     78  CB       -21.9000    1.5860   -5.9080 C.3   359  ARG359      0.0307
     79  CG       -23.1400    1.2560   -5.1180 C.3   359  ARG359      0.0489
     80  CD       -22.8710    0.4290   -3.8540 C.3   359  ARG359      0.2205
     81  NE       -23.9550    0.5890   -2.8840 N.pl3 359  ARG359     -0.0865
     82  CZ       -23.8190    1.0870   -1.6530 C.cat 359  ARG359      0.5346
     83  NH1      -22.6410    1.4720   -1.1770 N.pl3 359  ARG359      0.1354
     84  NH2      -24.8730    1.1780   -0.8610 N.pl3 359  ARG359      0.1354
     85  N        -21.9510    7.6620    0.8830 N.3   375  THR375     -0.1203
     86  CA       -22.2560    6.3250    1.3410 C.3   375  THR375      0.1994
     87  C        -21.9280    6.1840    2.8180 C.2   375  THR375      0.2618
     88  O        -21.1510    6.9030    3.3890 O.2   375  THR375     -0.2717
     89  CB       -21.2780    5.3100    0.7040 C.3   375  THR375      0.1784
     90  OG1      -19.9590    5.8240    0.8330 O.3   375  THR375     -0.2211
     91  CG2      -21.5680    4.9870   -0.7560 C.3   375  THR375      0.0376
     92  N        -22.4240    5.1400    3.4410 N.am  376  GLY376     -0.1942
     93  CA       -22.0190    4.8750    4.8170 C.3   376  GLY376      0.2014
     94  C        -21.9490    3.3990    5.0370 C.2   376  GLY376      0.2640
     95  O        -22.8510    2.6620    4.5660 O.2   376  GLY376     -0.2714
     96  N        -20.9100    2.9400    5.7550 N.am  377  SER377     -0.1935
     97  CA       -20.8150    1.4820    6.0230 C.3   377  SER377      0.2055
     98  C        -20.3850    1.1400    7.4270 C.2   377  SER377      0.2643
     99  O        -19.4650    1.8120    7.9430 O.2   377  SER377     -0.2714
    100  CB       -19.8540    0.7950    5.0710 C.3   377  SER377      0.2130
    101  OG       -20.4310    0.8490    3.8180 O.3   377  SER377     -0.2179
    102  N        -21.0480    0.1310    8.0360 N.am  378  LEU378     -0.1963
    103  CA       -20.4820   -0.5860    9.1920 C.3   378  LEU378      0.1728
    104  C        -20.7990   -2.0410    9.0270 C.2   378  LEU378      0.2616
    105  O        -21.4060   -2.4330    8.0600 O.2   378  LEU378     -0.2715
    106  CB       -21.0650   -0.1300   10.4920 C.3   378  LEU378      0.0311
    107  CG       -21.0740    1.3840   10.6140 C.3   378  LEU378      0.0022
    108  CD1      -22.1260    1.7960   11.6200 C.3   378  LEU378      0.0001
    109  CD2      -19.6530    1.9070   10.9640 C.3   378  LEU378      0.0001
    110  N        -20.3720   -2.8740    9.9520 N.am  379  LYS379     -0.1977
    111  CA       -20.8310   -4.2430    9.8450 C.3   379  LYS379      0.1596
    112  C        -22.3550   -4.1940   10.0900 C.2   379  LYS379      0.2287
    113  O        -22.7790   -3.8130   11.1590 O.2   379  LYS379     -0.2864
    114  CB       -20.0960   -5.1510   10.8540 C.3   379  LYS379      0.0298
    115  CG       -20.3780   -6.6170   10.7040 C.3   379  LYS379      0.0038
    116  CD       -19.4910   -7.3620   11.7450 C.3   379  LYS379      0.0206
    117  CE       -20.2530   -8.4480   12.5750 C.3   379  LYS379      0.1093
    118  NZ       -20.4870   -9.7100   11.8080 N.3   379  LYS379     -0.1314
    119  N        -18.4050  -11.0380    6.3380 N.3   413  LYS413     -0.1245
    120  CA       -19.6680  -10.4530    5.8260 C.3   413  LYS413      0.1561
    121  C        -20.0820  -11.1990    4.5400 C.2   413  LYS413      0.2260
    122  O        -19.3240  -11.1650    3.5610 O.2   413  LYS413     -0.2867
    123  CB       -19.4930   -8.9360    5.5200 C.3   413  LYS413      0.0271
    124  CG       -18.1970   -8.5390    4.7100 C.3   413  LYS413      0.0035
    125  CD       -18.1670   -7.0480    4.2780 C.3   413  LYS413      0.0206
    126  CE       -18.6180   -6.8290    2.8160 C.3   413  LYS413      0.1093
    127  NZ       -19.6450   -5.7410    2.6470 N.3   413  LYS413     -0.1314
@<TRIPOS>BOND
     1    77    76    2
     2    76    75    1
     3    74    75    1
     4    75    78    1
     5    78    79    1
     6    79    80    1
     7    80    81    1
     8    69    70    2
     9    69    68    1
    10    67    68    1
    11    68    71    1
    12    81    82    2
    13    26    27    1
    14    26    25    1
    15    82    83    1
    16    82    84    1
    17    71    72    1
    18    71    73    1
    19    24    25    1
    20    24    23    1
    21    91    89    1
    22    19    20    1
    23    20    23    1
    24    20    21    1
    25    89    90    1
    26    89    86    1
    27    85    86    1
    28    21    22    2
    29    21    28   am
    30    86    87    1
    31    28    29    1
    32   127   126    1
    33   126   125    1
    34    87    88    2
    35    87    92   am
    36    32    29    1
    37    32    33    1
    38    29    30    1
    39    92    93    1
    40   122   121    2
    41   101   100    1
    42    30    31    2
    43   125   124    1
    44   121   120    1
    45    95    94    2
    46   124   123    1
    47    93    94    1
    48    94    96   am
    49   100    97    1
    50   123   120    1
    51    96    97    1
    52   120   119    1
    53    97    98    1
    54     9     8    2
    55    10    11    1
    56    10     7    1
    57     8     7    1
    58     7     6    1
    59    98    99    2
    60    98   102   am
    61    34    35    1
    62     6     3   am
    63   102   103    1
    64   105   104    2
    65    40    39    2
    66     5     2    1
    67     3     4    2
    68     3     2    1
    69    35    36    1
    70    35    38    1
    71   104   103    1
    72   104   110   am
    73    39    41   am
    74    39    38    1
    75   103   106    1
    76     2     1    1
    77    36    37    2
    78   111   110    1
    79   111   112    1
    80   111   114    1
    81    45    44    2
    82   112   113    2
    83   106   107    1
    84   107   109    1
    85   107   108    1
    86   115   114    1
    87   115   116    1
    88    43    44    1
    89    43    46    1
    90    43    42    1
    91    46    47    1
    92    55    53    1
    93   116   117    1
    94   118   117    1
    95    53    54    1
    96    53    52    1
    97    48    49    1
    98    12    18    1
    99    12    13    1
   100    49    52    1
   101    49    50    1
   102    18    17    1
   103    66    64    1
   104    13    14    1
   105    13    16    1
   106    50    51    2
   107    64    65    1
   108    64    63    2
   109    17    16    1
   110    14    15    2
   111    63    62    1
   112    62    61    1
   113    61    60    1
   114    56    57    1
   115    57    60    1
   116    57    58    1
   117    58    59    2
