@<TRIPOS>MOLECULE
tmp/3a3fB00.pdb
 154 142 0 0 0
SMALL
GASTEIGER

@<TRIPOS>ATOM
      1  N         23.9120   -5.6870   10.2080 N.3    42  ALA42      -0.1231
      2  CA        22.5470   -5.4130    9.7840 C.3    42  ALA42       0.1694
      3  C         21.9540   -6.6460    9.1060 C.2    42  ALA42       0.2592
      4  O         22.1910   -7.8060    9.5450 O.2    42  ALA42      -0.2718
      5  CB        22.5140   -4.2310    8.8640 C.3    42  ALA42       0.0304
      6  N         21.1290   -6.4240    8.0830 N.am   43  SER43      -0.1952
      7  CA        20.3610   -7.5750    7.5260 C.3    43  SER43       0.1924
      8  C         21.2650   -8.5690    6.7420 C.2    43  SER43       0.2314
      9  O         20.7410   -9.5730    6.2230 O.2    43  SER43      -0.2863
     10  CB        19.2560   -7.1200    6.5720 C.3    43  SER43       0.2116
     11  OG        18.1610   -6.5810    7.2910 O.3    43  SER43      -0.2180
     12  N         16.2740   -1.3970   19.4640 N.3   133  ILE133     -0.1245
     13  CA        16.1500   -0.0200   19.8380 C.3   133  ILE133      0.1561
     14  C         14.6750    0.2230   20.2320 C.2   133  ILE133      0.2260
     15  O         13.7630   -0.3160   19.6090 O.2   133  ILE133     -0.2867
     16  CB        16.7840    0.7840   18.6560 C.3   133  ILE133      0.0252
     17  CG1       18.2040    1.2160   19.0190 C.3   133  ILE133      0.0019
     18  CG2       15.9550    1.8390   18.0930 C.3   133  ILE133      0.0019
     19  CD1       18.9430    1.6240   17.8410 C.3   133  ILE133      0.0001
     20  N         11.7890    2.3850   17.7610 N.3   136  ASP136     -0.1239
     21  CA        11.3660    1.8380   16.4740 C.3   136  ASP136      0.1674
     22  C         10.3610    0.6880   16.6100 C.2   136  ASP136      0.2266
     23  O          9.8580    0.1910   15.6050 O.2   136  ASP136     -0.2867
     24  CB        12.5970    1.3420   15.7270 C.3   136  ASP136      0.1410
     25  CG        13.5940    2.5080   15.3820 C.2   136  ASP136      0.3668
     26  OD1       13.1580    3.5430   14.7860 O.co2 136  ASP136     -0.2456
     27  OD2       14.7930    2.3740   15.7080 O.co2 136  ASP136     -0.2456
     28  N          7.2020    0.7190   14.5240 N.3   139  MET139     -0.1245
     29  CA         7.2490    0.5940   13.0440 C.3   139  MET139      0.1570
     30  C          7.0160   -0.8170   12.5850 C.2   139  MET139      0.2261
     31  O          7.4430   -1.7940   13.2180 O.2   139  MET139     -0.2867
     32  CB         8.5720    1.0700   12.4320 C.3   139  MET139      0.0387
     33  CG         9.1320    2.2360   13.2040 C.3   139  MET139      0.0595
     34  SD        10.0680    3.4790   12.3060 S.3   139  MET139     -0.1393
     35  CE        10.2090    4.8460   13.5220 C.3   139  MET139      0.0692
     36  N          8.3960   -2.4990   10.0030 N.3   141  PHE141     -0.1227
     37  CA         9.6660   -3.2710    9.8110 C.3   141  PHE141      0.1736
     38  C         10.0430   -4.0170   11.0570 C.2   141  PHE141      0.2595
     39  O         10.7990   -4.9730   11.0450 O.2   141  PHE141     -0.2718
     40  CB        10.8720   -2.3320    9.5420 C.3   141  PHE141      0.0547
     41  CG        10.8630   -1.7610    8.1870 C.ar  141  PHE141     -0.0202
     42  CD1       10.3580   -0.4760    7.9690 C.ar  141  PHE141     -0.0042
     43  CD2       11.2820   -2.5370    7.0840 C.ar  141  PHE141     -0.0042
     44  CE1       10.3110    0.0500    6.6530 C.ar  141  PHE141     -0.0003
     45  CE2       11.2270   -2.0090    5.7440 C.ar  141  PHE141     -0.0003
     46  CZ        10.7470   -0.7200    5.5470 C.ar  141  PHE141     -0.0000
     47  N          9.5910   -3.4840   12.1720 N.am  142  ASN142     -0.1974
     48  CA        10.0470   -3.9860   13.4250 C.3   142  ASN142      0.1688
     49  C          8.9440   -4.7200   14.1650 C.2   142  ASN142      0.2292
     50  O          9.0660   -4.9720   15.3460 O.2   142  ASN142     -0.2864
     51  CB        10.5470   -2.8240   14.2570 C.3   142  ASN142      0.1181
     52  CG        11.6770   -3.1900   15.0950 C.2   142  ASN142      0.2629
     53  OD1       12.0750   -4.3740   15.1490 O.2   142  ASN142     -0.2716
     54  ND2       12.2400   -2.2200   15.7460 N.am  142  ASN142     -0.0877
     55  N         13.7610  -10.0990   -0.3180 N.3   283  LYS283     -0.1231
     56  CA        13.0580   -8.8810    0.0930 C.3   283  LYS283      0.1693
     57  C         13.5200   -8.4220    1.4560 C.2   283  LYS283      0.2592
     58  O         13.2620   -7.2740    1.8140 O.2   283  LYS283     -0.2718
     59  CB        11.5300   -9.0570    0.0730 C.3   283  LYS283      0.0285
     60  CG        10.8960   -8.9590   -1.3680 C.3   283  LYS283      0.0035
     61  CD         9.3650   -8.9670   -1.2350 C.3   283  LYS283      0.0206
     62  CE         8.6420   -9.7190   -2.4000 C.3   283  LYS283      0.1093
     63  NZ         7.3740  -10.3350   -1.8260 N.3   283  LYS283     -0.1314
     64  N         14.3040   -9.2720    2.1330 N.am  284  SER284     -0.1952
     65  CA        14.8850   -8.9480    3.4430 C.3   284  SER284      0.1924
     66  C         13.7730   -8.7320    4.4390 C.2   284  SER284      0.2314
     67  O         13.6650   -7.6900    5.0630 O.2   284  SER284     -0.2863
     68  CB        15.7800   -7.7100    3.3750 C.3   284  SER284      0.2116
     69  OG        16.7190   -7.6930    4.4660 O.3   284  SER284     -0.2180
     70  N         12.3410   -9.1200    7.7960 N.3   286  ASN286     -0.1240
     71  CA        12.8590   -9.2960    9.1570 C.3   286  ASN286      0.1653
     72  C         12.0830  -10.3120    9.9390 C.2   286  ASN286      0.2266
     73  O         12.6650  -11.0230   10.7980 O.2   286  ASN286     -0.2867
     74  CB        12.7900   -8.0050    9.9890 C.3   286  ASN286      0.1155
     75  CG        13.5970   -6.9130    9.3810 C.2   286  ASN286      0.2627
     76  OD1       14.5810   -7.1900    8.7480 O.2   286  ASN286     -0.2716
     77  ND2       13.1510   -5.6680    9.5050 N.am  286  ASN286     -0.0877
     78  N         17.5400  -11.4840   12.1480 N.3   334  SER334     -0.1202
     79  CA        17.3670  -10.4420   11.1650 C.3   334  SER334      0.2020
     80  C         18.5600   -9.4790   11.1140 C.2   334  SER334      0.2619
     81  O         18.7110   -8.7570   10.1260 O.2   334  SER334     -0.2717
     82  CB        16.1650   -9.5830   11.5480 C.3   334  SER334      0.2103
     83  OG        16.4040   -9.1210   12.8800 O.3   334  SER334     -0.2182
     84  N         19.3720   -9.4160   12.1700 N.am  335  GLY335     -0.1942
     85  CA        20.4040   -8.4410   12.1890 C.3   335  GLY335      0.2014
     86  C         19.9470   -7.0530   12.6690 C.2   335  GLY335      0.2638
     87  O         20.6900   -6.0930   12.5440 O.2   335  GLY335     -0.2714
     88  N         18.7540   -6.9370   13.2580 N.am  336  LEU336     -0.1977
     89  CA        18.3160   -5.6430   13.7500 C.3   336  LEU336      0.1596
     90  C         19.1010   -5.1660   14.9880 C.2   336  LEU336      0.2287
     91  O         19.3390   -4.0310   15.0930 O.2   336  LEU336     -0.2864
     92  CB        16.8080   -5.6480   14.0320 C.3   336  LEU336      0.0297
     93  CG        15.9550   -5.8100   12.7710 C.3   336  LEU336      0.0022
     94  CD1       14.4980   -6.0700   13.1530 C.3   336  LEU336      0.0001
     95  CD2       16.1610   -4.5430   11.9020 C.3   336  LEU336      0.0001
     96  N         21.5510   -3.8110   17.9540 N.3   338  ARG338     -0.1245
     97  CA        22.7230   -2.9060   17.8730 C.3   338  ARG338      0.1563
     98  C         23.8210   -3.5980   18.6460 C.2   338  ARG338      0.2260
     99  O         24.8600   -3.0560   18.7870 O.2   338  ARG338     -0.2867
    100  CB        22.4350   -1.5200   18.5280 C.3   338  ARG338      0.0307
    101  CG        21.5870   -0.6610   17.5970 C.3   338  ARG338      0.0489
    102  CD        22.5120   -0.2260   16.4700 C.3   338  ARG338      0.2205
    103  NE        21.7880    0.5380   15.4710 N.pl3 338  ARG338     -0.0865
    104  CZ        22.3490    1.5070   14.7640 C.cat 338  ARG338      0.5346
    105  NH1       23.6110    1.8110   14.9840 N.pl3 338  ARG338      0.1354
    106  NH2       21.6540    2.1750   13.8630 N.pl3 338  ARG338      0.1354
    107  N         16.2290   -6.4680   -3.2330 N.3   375  THR375     -0.1218
    108  CA        16.5190   -5.1260   -2.7240 C.3   375  THR375      0.1862
    109  C         17.6250   -4.4900   -3.4950 C.2   375  THR375      0.2287
    110  O         17.9380   -3.3280   -3.2130 O.2   375  THR375     -0.2866
    111  CB        17.0330   -5.1690   -1.2870 C.3   375  THR375      0.1770
    112  OG1       18.0250   -6.2060   -1.2180 O.3   375  THR375     -0.2211
    113  CG2       15.8810   -5.5060   -0.3540 C.3   375  THR375      0.0375
    114  N         19.8600   -0.8090   -7.0030 N.3   379  ARG379     -0.1245
    115  CA        21.0360   -0.2920   -6.3020 C.3   379  ARG379      0.1563
    116  C         21.9920    0.5030   -7.1720 C.2   379  ARG379      0.2260
    117  O         22.6550   -0.0640   -8.0360 O.2   379  ARG379     -0.2867
    118  CB        21.8620   -1.3980   -5.6750 C.3   379  ARG379      0.0307
    119  CG        22.9990   -0.8100   -4.8040 C.3   379  ARG379      0.0489
    120  CD        22.5690   -0.9130   -3.3410 C.3   379  ARG379      0.2205
    121  NE        23.6430   -0.8010   -2.3480 N.pl3 379  ARG379     -0.0865
    122  CZ        23.4460   -0.9850   -1.0390 C.cat 379  ARG379      0.5346
    123  NH1       22.2470   -1.3180   -0.5970 N.pl3 379  ARG379      0.1354
    124  NH2       24.4450   -0.8820   -0.1580 N.pl3 379  ARG379      0.1354
    125  N         21.6610   -7.4230    1.0630 N.3   395  THR395     -0.1218
    126  CA        21.9160   -6.0850    1.5870 C.3   395  THR395      0.1862
    127  C         21.6790   -6.0490    3.0920 C.2   395  THR395      0.2287
    128  O         20.8750   -6.8290    3.6720 O.2   395  THR395     -0.2866
    129  CB        20.9120   -5.0280    0.9240 C.3   395  THR395      0.1770
    130  OG1       19.5900   -5.5550    0.9420 O.3   395  THR395     -0.2211
    131  CG2       21.2110   -4.7150   -0.5410 C.3   395  THR395      0.0375
    132  N         20.8230   -2.6890    5.9580 N.3   397  SER397     -0.1202
    133  CA        20.7470   -1.2380    6.2360 C.3   397  SER397      0.2020
    134  C         20.2060   -0.9420    7.5970 C.2   397  SER397      0.2619
    135  O         19.2350   -1.5680    7.9890 O.2   397  SER397     -0.2717
    136  CB        19.8670   -0.4750    5.2500 C.3   397  SER397      0.2103
    137  OG        20.3100   -0.7630    3.9740 O.3   397  SER397     -0.2182
    138  N         20.8660    0.0080    8.2900 N.am  398  LEU398     -0.1965
    139  CA        20.3370    0.6990    9.4840 C.3   398  LEU398      0.1728
    140  C         20.7760    2.1070    9.3790 C.2   398  LEU398      0.2616
    141  O         21.5790    2.4330    8.5030 O.2   398  LEU398     -0.2715
    142  CB        20.9250    0.1500   10.7830 C.3   398  LEU398      0.0311
    143  CG        20.8730   -1.3710   10.8850 C.3   398  LEU398      0.0022
    144  CD1       21.9460   -1.9220   11.8140 C.3   398  LEU398      0.0001
    145  CD2       19.4910   -1.7250   11.4180 C.3   398  LEU398      0.0001
    146  N         20.3070    2.9630   10.2920 N.am  399  LYS399     -0.1977
    147  CA        20.8680    4.3280   10.4140 C.3   399  LYS399      0.1596
    148  C         22.3850    4.2400   10.5740 C.2   399  LYS399      0.2287
    149  O         22.8770    3.5930   11.4950 O.2   399  LYS399     -0.2864
    150  CB        20.2040    5.0790   11.6090 C.3   399  LYS399      0.0298
    151  CG        20.9330    6.3620   12.1370 C.3   399  LYS399      0.0038
    152  CD        20.1120    7.0120   13.3070 C.3   399  LYS399      0.0206
    153  CE        20.5380    8.4430   13.6660 C.3   399  LYS399      0.1093
    154  NZ        20.6610    9.3220   12.4460 N.3   399  LYS399     -0.1314
@<TRIPOS>BOND
     1   117   116    2
     2   116   115    1
     3   114   115    1
     4   115   118    1
     5   118   119    1
     6   119   120    1
     7   109   110    2
     8   109   108    1
     9   120   121    1
    10   107   108    1
    11   108   111    1
    12    62    63    1
    13    62    61    1
    14   121   122    2
    15    60    61    1
    16    60    59    1
    17   111   112    1
    18   111   113    1
    19   122   123    1
    20   122   124    1
    21   131   129    1
    22    55    56    1
    23    59    56    1
    24    56    57    1
    25   129   130    1
    26   129   126    1
    27   125   126    1
    28    57    58    2
    29    57    64   am
    30   126   127    1
    31    64    65    1
    32   127   128    2
    33    68    65    1
    34    68    69    1
    35    65    66    1
    36   137   136    1
    37    66    67    2
    38   136   133    1
    39    46    45   ar
    40    46    44   ar
    41    45    43   ar
    42   132   133    1
    43     9     8    2
    44   133   134    1
    45    10    11    1
    46    10     7    1
    47    44    42   ar
    48     8     7    1
    49    43    41   ar
    50     7     6    1
    51   134   135    2
    52   134   138   am
    53    70    71    1
    54    42    41   ar
    55     6     3   am
    56    41    40    1
    57   138   139    1
    58   141   140    2
    59    76    75    2
    60     5     2    1
    61     3     4    2
    62     3     2    1
    63    71    72    1
    64    71    74    1
    65   140   139    1
    66   140   146   am
    67    75    77   am
    68    75    74    1
    69   139   142    1
    70    40    37    1
    71     2     1    1
    72    37    36    1
    73    37    38    1
    74    72    73    2
    75    81    80    2
    76   146   147    1
    77   147   148    1
    78   147   150    1
    79   148   149    2
    80   142   143    1
    81   143   145    1
    82   143   144    1
    83    39    38    2
    84    38    47   am
    85    80    79    1
    86    80    84   am
    87    79    82    1
    88    79    78    1
    89    82    83    1
    90   150   151    1
    91    95    93    1
    92   151   152    1
    93    84    85    1
    94    47    48    1
    95    85    86    1
    96    34    33    1
    97    34    35    1
    98    32    29    1
    99    32    33    1
   100   154   153    1
   101    87    86    2
   102    30    29    1
   103    30    31    2
   104    86    88   am
   105    93    94    1
   106    93    92    1
   107    29    28    1
   108    88    89    1
   109   152   153    1
   110    48    49    1
   111    48    51    1
   112    89    92    1
   113    89    90    1
   114   106   104    1
   115    49    50    2
   116    51    52    1
   117   104   105    1
   118   104   103    2
   119    26    25   ar
   120    90    91    2
   121    52    53    2
   122    52    54   am
   123    25    27   ar
   124    25    24    1
   125   103   102    1
   126    23    22    2
   127    24    21    1
   128   102   101    1
   129    21    22    1
   130    21    20    1
   131   101   100    1
   132    19    17    1
   133    97    96    1
   134    97   100    1
   135    97    98    1
   136    18    16    1
   137    98    99    2
   138    16    17    1
   139    16    13    1
   140    12    13    1
   141    15    14    2
   142    13    14    1
