@<TRIPOS>MOLECULE
tmp/3a3gB00.pdb
 113 107 0 0 0
SMALL
GASTEIGER

@<TRIPOS>ATOM
      1  N          0.0840   -3.3730  -30.3640 N.3    41  VAL41      -0.1245
      2  CA         0.4690   -4.4920  -31.1870 C.3    41  VAL41       0.1561
      3  C          1.8720   -4.9340  -30.7280 C.2    41  VAL41       0.2260
      4  O          2.8330   -4.1390  -30.6560 O.2    41  VAL41      -0.2867
      5  CB         0.5100   -4.0820  -32.6410 C.3    41  VAL41       0.0252
      6  CG1        1.0540   -5.2410  -33.5090 C.3    41  VAL41       0.0019
      7  CG2       -0.8900   -3.6180  -33.1000 C.3    41  VAL41       0.0019
      8  N          4.5690  -13.7050  -32.8300 N.3    47  CYS47      -0.1221
      9  CA         3.4210  -13.4110  -33.7050 C.3    47  CYS47       0.1808
     10  C          2.8390  -12.0700  -33.3080 C.2    47  CYS47       0.2602
     11  O          2.5380  -11.8490  -32.1330 O.2    47  CYS47      -0.2717
     12  CB         2.3240  -14.5030  -33.6310 C.3    47  CYS47       0.0970
     13  SG         0.8230  -14.1830  -34.6200 S.3    47  CYS47      -0.0800
     14  N          2.6750  -11.1890  -34.2970 N.am   48  SER48      -0.1938
     15  CA         2.1010   -9.8680  -34.0540 C.3    48  SER48       0.2055
     16  C          0.6060   -9.9910  -33.7410 C.2    48  SER48       0.2643
     17  O         -0.1780  -10.5560  -34.5230 O.2    48  SER48      -0.2714
     18  CB         2.4060   -8.9420  -35.2240 C.3    48  SER48       0.2130
     19  OG         1.7540   -7.7250  -35.0180 O.3    48  SER48      -0.2179
     20  N          0.2230   -9.5160  -32.5610 N.am   49  LEU49      -0.1963
     21  CA        -1.1480   -9.5930  -32.0890 C.3    49  LEU49       0.1728
     22  C         -1.4420   -8.3060  -31.3770 C.2    49  LEU49       0.2616
     23  O         -0.5210   -7.6530  -30.8940 O.2    49  LEU49      -0.2715
     24  CB        -1.3450  -10.7480  -31.0760 C.3    49  LEU49       0.0311
     25  CG        -1.0620  -12.1970  -31.5040 C.3    49  LEU49       0.0022
     26  CD1       -1.0880  -13.0590  -30.2890 C.3    49  LEU49       0.0001
     27  CD2       -2.0860  -12.6630  -32.5440 C.3    49  LEU49       0.0001
     28  N         -2.7350   -7.9800  -31.3070 N.am   50  THR50      -0.1951
     29  CA        -3.2700   -6.7400  -30.6800 C.3    50  THR50       0.1897
     30  C         -3.9080   -7.0170  -29.3270 C.2    50  THR50       0.2313
     31  O         -4.7600   -7.9200  -29.2030 O.2    50  THR50      -0.2863
     32  CB        -4.3380   -6.1280  -31.6120 C.3    50  THR50       0.1794
     33  OG1       -3.7870   -6.0550  -32.9280 O.3    50  THR50      -0.2208
     34  CG2       -4.7250   -4.7220  -31.1800 C.3    50  THR50       0.0378
     35  N         -6.5730   -6.7640  -26.6900 N.3    52  VAL52      -0.1245
     36  CA        -8.0090   -6.4360  -26.7900 C.3    52  VAL52       0.1561
     37  C         -8.5700   -6.0410  -25.4440 C.2    52  VAL52       0.2260
     38  O         -9.6060   -5.4060  -25.3750 O.2    52  VAL52      -0.2867
     39  CB        -8.8850   -7.5810  -27.4450 C.3    52  VAL52       0.0252
     40  CG1       -8.4270   -7.8720  -28.8740 C.3    52  VAL52       0.0019
     41  CG2       -8.9200   -8.8810  -26.5840 C.3    52  VAL52       0.0019
     42  N         -7.1730  -11.7600  -29.1630 N.3    62  ASP62      -0.1225
     43  CA        -8.0870  -12.6300  -29.9620 C.3    62  ASP62       0.1805
     44  C         -7.2420  -13.2240  -31.0770 C.2    62  ASP62       0.2598
     45  O         -6.6510  -12.4970  -31.8890 O.2    62  ASP62      -0.2718
     46  CB        -9.2400  -11.8080  -30.5320 C.3    62  ASP62       0.1424
     47  CG       -10.3170  -11.5290  -29.5030 C.2    62  ASP62       0.3668
     48  OD1      -10.5800  -12.3970  -28.6730 O.co2  62  ASP62      -0.2456
     49  OD2      -10.8890  -10.4340  -29.5160 O.co2  62  ASP62      -0.2456
     50  N         -7.1280  -14.5440  -31.1040 N.am   63  ILE63      -0.1966
     51  CA        -6.3430  -15.1600  -32.1710 C.3    63  ILE63       0.1727
     52  C         -7.3330  -15.4750  -33.2690 C.2    63  ILE63       0.2616
     53  O         -8.2180  -16.3070  -33.0770 O.2    63  ILE63      -0.2715
     54  CB        -5.6410  -16.4810  -31.7240 C.3    63  ILE63       0.0290
     55  CG1       -4.8870  -16.2970  -30.3800 C.3    63  ILE63       0.0022
     56  CG2       -4.7200  -16.9940  -32.8630 C.3    63  ILE63       0.0023
     57  CD1       -3.8870  -15.2130  -30.3670 C.3    63  ILE63       0.0001
     58  N         -7.2160  -14.7710  -34.3870 N.am   64  ASP64      -0.1957
     59  CA        -8.1440  -15.0190  -35.4810 C.3    64  ASP64       0.1840
     60  C         -7.4830  -15.1170  -36.8340 C.2    64  ASP64       0.2622
     61  O         -7.3770  -16.2260  -37.3260 O.2    64  ASP64      -0.2715
     62  CB        -9.4080  -14.1410  -35.4530 C.3    64  ASP64       0.1450
     63  CG        -9.1440  -12.7480  -35.0110 C.2    64  ASP64       0.3671
     64  OD1       -8.1700  -12.1450  -35.5340 O.co2  64  ASP64      -0.2456
     65  OD2       -9.9420  -12.2470  -34.1470 O.co2  64  ASP64      -0.2456
     66  N         -7.0530  -13.9910  -37.4170 N.am   65  GLN65      -0.1963
     67  CA        -6.2230  -13.9910  -38.6550 C.3    65  GLN65       0.1733
     68  C         -5.1190  -15.0330  -38.4980 C.2    65  GLN65       0.2616
     69  O         -4.7810  -15.7360  -39.4470 O.2    65  GLN65      -0.2715
     70  CB        -5.5280  -12.6350  -38.9640 C.3    65  GLN65       0.0408
     71  CG        -6.4240  -11.4540  -39.3680 C.3    65  GLN65       0.0908
     72  CD        -5.9250  -10.1250  -38.7860 C.2    65  GLN65       0.2608
     73  OE1       -6.4380   -9.6550  -37.7610 O.2    65  GLN65      -0.2717
     74  NE2       -4.8990   -9.5250  -39.4210 N.am   65  GLN65      -0.0878
     75  N         -4.5340  -15.1020  -37.3010 N.am   66  ALA66      -0.1977
     76  CA        -3.3470  -15.9480  -37.0770 C.3    66  ALA66       0.1597
     77  C         -3.6560  -17.4280  -36.7930 C.2    66  ALA66       0.2287
     78  O         -2.7340  -18.2220  -36.6960 O.2    66  ALA66      -0.2864
     79  CB        -2.4790  -15.3270  -35.9360 C.3    66  ALA66       0.0319
     80  N         -2.0480  -20.5700  -38.8370 N.3    69  THR69      -0.1203
     81  CA        -0.6620  -20.5230  -39.2560 C.3    69  THR69       0.1994
     82  C          0.3080  -20.3460  -38.0820 C.2    69  THR69       0.2618
     83  O          1.4640  -20.0060  -38.2910 O.2    69  THR69      -0.2717
     84  CB        -0.4410  -19.3620  -40.2510 C.3    69  THR69       0.1784
     85  OG1       -0.8860  -18.1430  -39.6360 O.3    69  THR69      -0.2211
     86  CG2       -1.2380  -19.6160  -41.5750 C.3    69  THR69       0.0376
     87  N         -0.1760  -20.6100  -36.8660 N.am   70  THR70      -0.1952
     88  CA         0.6250  -20.4440  -35.6470 C.3    70  THR70       0.1897
     89  C          0.2890  -21.5630  -34.6930 C.2    70  THR70       0.2313
     90  O         -0.5890  -22.3720  -34.9730 O.2    70  THR70      -0.2863
     91  CB         0.3280  -19.0830  -34.9280 C.3    70  THR70       0.1794
     92  OG1       -1.0790  -18.9980  -34.6040 O.3    70  THR70      -0.2208
     93  CG2        0.7690  -17.9010  -35.7570 C.3    70  THR70       0.0378
     94  N          6.7990  -10.0760  -37.2400 N.3    93  GLY93      -0.1210
     95  CA         5.6600  -10.6020  -36.5040 C.3    93  GLY93       0.1956
     96  C          4.6740  -11.3330  -37.4040 C.2    93  GLY93       0.2612
     97  O          3.6370  -11.8230  -36.9640 O.2    93  GLY93      -0.2717
     98  N          5.0370  -11.4320  -38.6720 N.am   94  ASN94      -0.1960
     99  CA         4.2610  -12.2400  -39.5910 C.3    94  ASN94       0.1819
    100  C          4.8070  -13.6510  -39.6450 C.2    94  ASN94       0.2621
    101  O          5.8050  -13.9060  -40.2990 O.2    94  ASN94      -0.2715
    102  CB         4.2890  -11.6420  -40.9930 C.3    94  ASN94       0.1195
    103  CG         3.2370  -12.2610  -41.8810 C.2    94  ASN94       0.2630
    104  OD1        2.0500  -12.1100  -41.6410 O.2    94  ASN94      -0.2716
    105  ND2        3.6710  -12.9960  -42.8740 N.am   94  ASN94      -0.0877
    106  N          4.1350  -14.5750  -38.9760 N.am   95  ILE95      -0.1977
    107  CA         4.6260  -15.9410  -38.8780 C.3    95  ILE95       0.1596
    108  C          4.3750  -16.6400  -40.1990 C.2    95  ILE95       0.2287
    109  O          3.2410  -16.6370  -40.6840 O.2    95  ILE95      -0.2864
    110  CB         3.9690  -16.6780  -37.7380 C.3    95  ILE95       0.0276
    111  CG1        4.3570  -16.0400  -36.3590 C.3    95  ILE95       0.0022
    112  CG2        4.3310  -18.1660  -37.7880 C.3    95  ILE95       0.0022
    113  CD1        5.9370  -15.8500  -36.0740 C.3    95  ILE95       0.0001
@<TRIPOS>BOND
     1   105   103   am
     2   103   104    2
     3   103   102    1
     4    86    84    1
     5   102    99    1
     6   109   108    2
     7   101   100    2
     8    84    85    1
     9    84    81    1
    10   108   107    1
    11   100    99    1
    12   100   106   am
    13    99    98    1
    14    69    68    2
    15    74    72   am
    16    71    70    1
    17    71    72    1
    18    81    80    1
    19    81    82    1
    20   106   107    1
    21    70    67    1
    22   107   110    1
    23    72    73    2
    24    98    96   am
    25    67    68    1
    26    67    66    1
    27    68    75   am
    28    83    82    2
    29    82    87   am
    30   112   110    1
    31   110   111    1
    32    66    60   am
    33    96    97    2
    34    96    95    1
    35    61    60    2
    36    75    76    1
    37    94    95    1
    38    76    77    1
    39    76    79    1
    40    87    88    1
    41    60    59    1
    42    77    78    2
    43   111   113    1
    44    93    91    1
    45    88    91    1
    46    88    89    1
    47    64    63   ar
    48    59    62    1
    49    59    58    1
    50    62    63    1
    51    18    19    1
    52    18    15    1
    53    63    65   ar
    54    90    89    2
    55    91    92    1
    56    13    12    1
    57    17    16    2
    58    58    52   am
    59    14    15    1
    60    14    10   am
    61    15    16    1
    62    16    20   am
    63     9    12    1
    64     9    10    1
    65     9     8    1
    66     6     5    1
    67    10    11    2
    68    52    53    2
    69    52    51    1
    70     7     5    1
    71    33    32    1
    72    56    54    1
    73     5     2    1
    74    20    21    1
    75    27    25    1
    76    51    54    1
    77    51    50    1
    78    21    22    1
    79    21    24    1
    80    45    44    2
    81    54    55    1
    82    32    34    1
    83    32    29    1
    84    25    24    1
    85    25    26    1
    86    22    28   am
    87    22    23    2
    88    28    29    1
    89     2     3    1
    90     2     1    1
    91    50    44   am
    92    44    43    1
    93     3     4    2
    94    29    30    1
    95    46    43    1
    96    46    47    1
    97    55    57    1
    98    43    42    1
    99    49    47   ar
   100    47    48   ar
   101    30    31    2
   102    40    39    1
   103    39    36    1
   104    39    41    1
   105    36    35    1
   106    36    37    1
   107    37    38    2
