@<TRIPOS>MOLECULE
tmp/3a3iB00.pdb
 128 119 0 0 0
SMALL
GASTEIGER

@<TRIPOS>ATOM
      1  N         23.7330   -5.7640   10.3330 N.3    42  ALA42      -0.1231
      2  CA        22.3450   -5.4940    9.9700 C.3    42  ALA42       0.1694
      3  C         21.8530   -6.7580    9.2700 C.2    42  ALA42       0.2592
      4  O         22.1940   -7.8730    9.6810 O.2    42  ALA42      -0.2718
      5  CB        22.2520   -4.2860    8.9960 C.3    42  ALA42       0.0304
      6  N         21.0400   -6.5810    8.2450 N.am   43  SER43      -0.1952
      7  CA        20.2810   -7.7540    7.7280 C.3    43  SER43       0.1924
      8  C         21.1480   -8.7320    6.9290 C.2    43  SER43       0.2314
      9  O         20.6190   -9.7850    6.5220 O.2    43  SER43      -0.2863
     10  CB        19.1050   -7.3210    6.8120 C.3    43  SER43       0.2116
     11  OG        18.0370   -6.7040    7.5320 O.3    43  SER43      -0.2180
     12  N         11.9810    2.1630   17.7740 N.3   136  ASP136     -0.1239
     13  CA        11.5980    1.5120   16.5090 C.3   136  ASP136      0.1674
     14  C         10.5260    0.4450   16.7230 C.2   136  ASP136      0.2266
     15  O          9.9850   -0.0650   15.7360 O.2   136  ASP136     -0.2867
     16  CB        12.7990    0.7780   15.8860 C.3   136  ASP136      0.1410
     17  CG        13.8700    1.7350   15.3570 C.2   136  ASP136      0.3668
     18  OD1       13.5680    2.9300   15.1200 O.co2 136  ASP136     -0.2456
     19  OD2       15.0280    1.2760   15.1690 O.co2 136  ASP136     -0.2456
     20  N          8.3440   -2.5280   10.2350 N.3   141  PHE141     -0.1241
     21  CA         9.5200   -3.3600    9.8930 C.3   141  PHE141      0.1605
     22  C         10.0490   -4.0940   11.1230 C.2   141  PHE141      0.2264
     23  O         10.7700   -5.0990   11.0220 O.2   141  PHE141     -0.2867
     24  CB        10.6290   -2.4870    9.2570 C.3   141  PHE141      0.0534
     25  CG        11.2510   -1.4780   10.2020 C.ar  141  PHE141     -0.0203
     26  CD1       12.0620   -1.8900   11.2600 C.ar  141  PHE141     -0.0042
     27  CD2       11.0840   -0.1000    9.9840 C.ar  141  PHE141     -0.0042
     28  CE1       12.7070   -0.8920   12.1200 C.ar  141  PHE141     -0.0003
     29  CE2       11.7030    0.9100   10.8290 C.ar  141  PHE141     -0.0003
     30  CZ        12.4960    0.5170   11.8820 C.ar  141  PHE141     -0.0000
     31  N         13.5780  -10.0730   -0.0500 N.3   283  LYS283     -0.1231
     32  CA        12.9250   -8.8380    0.3590 C.3   283  LYS283      0.1693
     33  C         13.4180   -8.4000    1.6980 C.2   283  LYS283      0.2592
     34  O         13.2050   -7.2580    2.0700 O.2   283  LYS283     -0.2718
     35  CB        11.3950   -9.0050    0.4600 C.3   283  LYS283      0.0285
     36  CG        10.6410   -9.1360   -0.8770 C.3   283  LYS283      0.0035
     37  CD         9.1770   -8.7300   -0.5690 C.3   283  LYS283      0.0206
     38  CE         8.2420   -8.8020   -1.7510 C.3   283  LYS283      0.1093
     39  NZ         7.3570  -10.0370   -1.6150 N.3   283  LYS283     -0.1314
     40  N         14.0820   -9.2970    2.4220 N.am  284  SER284     -0.1952
     41  CA        14.7230   -8.9700    3.7170 C.3   284  SER284      0.1924
     42  C         13.6400   -8.7550    4.7190 C.2   284  SER284      0.2314
     43  O         13.5150   -7.7060    5.2700 O.2   284  SER284     -0.2863
     44  CB        15.6070   -7.7140    3.6330 C.3   284  SER284      0.2116
     45  OG        16.5490   -7.7280    4.7130 O.3   284  SER284     -0.2180
     46  N         12.3440   -9.1630    8.1530 N.3   286  ASN286     -0.1240
     47  CA        12.8170   -9.3090    9.5100 C.3   286  ASN286      0.1653
     48  C         12.0810  -10.3660   10.2510 C.2   286  ASN286      0.2266
     49  O         12.6850  -11.1350   11.0770 O.2   286  ASN286     -0.2867
     50  CB        12.6900   -7.9870   10.2930 C.3   286  ASN286      0.1155
     51  CG        13.5110   -6.8980    9.6990 C.2   286  ASN286      0.2627
     52  OD1       13.1590   -5.7140    9.7710 O.2   286  ASN286     -0.2716
     53  ND2       14.6420   -7.2700    9.1440 N.am  286  ASN286     -0.0877
     54  N         17.6600  -11.6200   12.5000 N.3   334  SER334     -0.1202
     55  CA        17.4240  -10.6070   11.4710 C.3   334  SER334      0.2020
     56  C         18.5540   -9.5510   11.3560 C.2   334  SER334      0.2619
     57  O         18.6450   -8.7950   10.3430 O.2   334  SER334     -0.2717
     58  CB        16.1710   -9.8410   11.8900 C.3   334  SER334      0.2103
     59  OG        16.3980   -9.3010   13.2140 O.3   334  SER334     -0.2182
     60  N         19.3660   -9.4320   12.4000 N.am  335  GLY335     -0.1942
     61  CA        20.3710   -8.3950   12.3520 C.3   335  GLY335      0.2014
     62  C         19.9470   -7.0700   12.9810 C.2   335  GLY335      0.2638
     63  O         20.7260   -6.0870   12.9500 O.2   335  GLY335     -0.2714
     64  N         18.7320   -6.9860   13.5610 N.am  336  LEU336     -0.1977
     65  CA        18.2420   -5.6930   14.0660 C.3   336  LEU336      0.1596
     66  C         19.0190   -5.2530   15.3290 C.2   336  LEU336      0.2287
     67  O         19.1120   -4.1130   15.6050 O.2   336  LEU336     -0.2864
     68  CB        16.7530   -5.8240   14.4300 C.3   336  LEU336      0.0297
     69  CG        15.8590   -5.9620   13.1710 C.3   336  LEU336      0.0022
     70  CD1       14.3820   -6.3220   13.5320 C.3   336  LEU336      0.0001
     71  CD2       15.9660   -4.5740   12.4840 C.3   336  LEU336      0.0001
     72  N         16.1070   -6.5400   -2.9960 N.3   375  THR375     -0.1218
     73  CA        16.3910   -5.2070   -2.5070 C.3   375  THR375      0.1862
     74  C         17.4980   -4.5420   -3.2920 C.2   375  THR375      0.2287
     75  O         17.8850   -3.4320   -2.9110 O.2   375  THR375     -0.2866
     76  CB        16.8760   -5.2680   -1.0320 C.3   375  THR375      0.1770
     77  OG1       17.8430   -6.3420   -0.9290 O.3   375  THR375     -0.2211
     78  CG2       15.6570   -5.5840   -0.0900 C.3   375  THR375      0.0375
     79  N         19.7430   -0.8040   -6.9210 N.3   379  ARG379     -0.1245
     80  CA        20.8830   -0.2500   -6.2100 C.3   379  ARG379      0.1563
     81  C         21.8390    0.5020   -7.1120 C.2   379  ARG379      0.2260
     82  O         22.4960   -0.0790   -7.9630 O.2   379  ARG379     -0.2867
     83  CB        21.6490   -1.3710   -5.5060 C.3   379  ARG379      0.0307
     84  CG        22.7200   -0.8740   -4.5640 C.3   379  ARG379      0.0489
     85  CD        22.4350   -1.3410   -3.1760 C.3   379  ARG379      0.2205
     86  NE        23.4810   -0.9860   -2.2170 N.pl3 379  ARG379     -0.0865
     87  CZ        23.2690   -1.0470   -0.9150 C.cat 379  ARG379      0.5346
     88  NH1       22.0850   -1.4820   -0.4930 N.pl3 379  ARG379      0.1354
     89  NH2       24.2340   -0.7180   -0.0460 N.pl3 379  ARG379      0.1354
     90  N         22.9000  -10.1350   -0.4840 N.3   394  LYS394     -0.1231
     91  CA        22.0820   -9.7290    0.6370 C.3   394  LYS394      0.1693
     92  C         22.4730   -8.3680    1.1230 C.2   394  LYS394      0.2592
     93  O         23.6720   -8.0950    1.3740 O.2   394  LYS394     -0.2718
     94  CB        22.2570  -10.6870    1.8160 C.3   394  LYS394      0.0285
     95  CG        21.2820  -10.3480    2.9920 C.3   394  LYS394      0.0035
     96  CD        19.8440  -10.7700    2.5920 C.3   394  LYS394      0.0206
     97  CE        18.7710  -10.1710    3.5140 C.3   394  LYS394      0.1093
     98  NZ        18.6510   -8.6470    3.2910 N.3   394  LYS394     -0.1314
     99  N         21.4790   -7.4840    1.2220 N.am  395  THR395     -0.1953
    100  CA        21.6750   -6.1380    1.7790 C.3   395  THR395      0.1897
    101  C         21.4720   -6.0870    3.2890 C.2   395  THR395      0.2313
    102  O         20.8180   -6.9150    3.8720 O.2   395  THR395     -0.2863
    103  CB        20.6780   -5.1580    1.1570 C.3   395  THR395      0.1794
    104  OG1       19.3380   -5.6970    1.2640 O.3   395  THR395     -0.2208
    105  CG2       21.0110   -4.8830   -0.3120 C.3   395  THR395      0.0378
    106  N         20.7240   -2.6740    6.0810 N.3   397  SER397     -0.1202
    107  CA        20.6730   -1.2470    6.2500 C.3   397  SER397      0.2020
    108  C         20.1180   -0.9230    7.6300 C.2   397  SER397      0.2619
    109  O         19.0990   -1.4720    8.0040 O.2   397  SER397     -0.2717
    110  CB        19.7030   -0.6170    5.2240 C.3   397  SER397      0.2103
    111  OG        20.2060   -0.8140    3.9690 O.3   397  SER397     -0.2182
    112  N         20.7520    0.0070    8.3690 N.am  398  LEU398     -0.1965
    113  CA        20.1390    0.5450    9.6120 C.3   398  LEU398      0.1728
    114  C         20.5440    1.9760    9.5800 C.2   398  LEU398      0.2616
    115  O         21.3210    2.3530    8.7270 O.2   398  LEU398     -0.2715
    116  CB        20.7600   -0.0710   10.8670 C.3   398  LEU398      0.0311
    117  CG        20.8280   -1.5710   11.0490 C.3   398  LEU398      0.0022
    118  CD1       21.8670   -1.9660   12.0330 C.3   398  LEU398      0.0001
    119  CD2       19.5190   -2.0570   11.5720 C.3   398  LEU398      0.0001
    120  N         20.1010    2.8030   10.5210 N.am  399  LYS399     -0.1977
    121  CA        20.6700    4.1410   10.6420 C.3   399  LYS399      0.1596
    122  C         22.2000    4.0700   10.7600 C.2   399  LYS399      0.2287
    123  O         22.7240    3.3610   11.6440 O.2   399  LYS399     -0.2864
    124  CB        20.0720    4.8790   11.8640 C.3   399  LYS399      0.0298
    125  CG        20.6190    6.3250   12.0870 C.3   399  LYS399      0.0038
    126  CD        19.8930    6.9860   13.2850 C.3   399  LYS399      0.0206
    127  CE        20.4270    8.4240   13.6730 C.3   399  LYS399      0.1093
    128  NZ        20.7000    9.3380   12.4880 N.3   399  LYS399     -0.1314
@<TRIPOS>BOND
     1    82    81    2
     2    81    80    1
     3    79    80    1
     4    80    83    1
     5    83    84    1
     6    84    85    1
     7    74    75    2
     8    74    73    1
     9    85    86    1
    10    72    73    1
    11    73    76    1
    12    86    87    2
    13    38    39    1
    14    38    37    1
    15    76    77    1
    16    76    78    1
    17    87    88    1
    18    87    89    1
    19    36    37    1
    20    36    35    1
    21    90    91    1
    22   105   103    1
    23    31    32    1
    24    32    35    1
    25    32    33    1
    26    91    92    1
    27    91    94    1
    28    92    99   am
    29    92    93    2
    30   103   104    1
    31   103   100    1
    32    99   100    1
    33    33    34    2
    34    33    40   am
    35   100   101    1
    36    94    95    1
    37    40    41    1
    38    96    95    1
    39    96    97    1
    40   101   102    2
    41    98    97    1
    42    44    41    1
    43    44    45    1
    44    41    42    1
    45   111   110    1
    46    42    43    2
    47   110   107    1
    48   106   107    1
    49   107   108    1
    50     9     8    2
    51    10    11    1
    52    10     7    1
    53     8     7    1
    54   108   109    2
    55   108   112   am
    56     7     6    1
    57    46    47    1
    58     6     3   am
    59   112   113    1
    60   115   114    2
    61     5     2    1
    62    53    51   am
    63    24    21    1
    64    24    25    1
    65     3     4    2
    66     3     2    1
    67    47    48    1
    68    47    50    1
    69   114   113    1
    70   114   120   am
    71   113   116    1
    72    51    52    2
    73    51    50    1
    74    21    20    1
    75    21    22    1
    76     2     1    1
    77    27    25   ar
    78    27    29   ar
    79    25    26   ar
    80    48    49    2
    81    57    56    2
    82   120   121    1
    83   121   122    1
    84   121   124    1
    85   122   123    2
    86    29    30   ar
    87   116   117    1
    88    23    22    2
    89   117   119    1
    90   117   118    1
    91    26    28   ar
    92    56    55    1
    93    56    60   am
    94    55    58    1
    95    55    54    1
    96   124   125    1
    97    30    28   ar
    98    58    59    1
    99   125   126    1
   100    61    60    1
   101    61    62    1
   102    71    69    1
   103   128   127    1
   104    63    62    2
   105    62    64   am
   106    69    70    1
   107    69    68    1
   108   126   127    1
   109    64    65    1
   110    65    68    1
   111    65    66    1
   112    18    17   ar
   113    19    17   ar
   114    66    67    2
   115    17    16    1
   116    15    14    2
   117    16    13    1
   118    13    14    1
   119    13    12    1
