@<TRIPOS>MOLECULE
tmp/3a3uA00.pdb
 91 84 0 0 0
SMALL
GASTEIGER

@<TRIPOS>ATOM
      1  N         52.6850    6.9020   73.9080 N.3    11  ASN11      -0.1240
      2  CA        51.7710    8.0320   73.8940 C.3    11  ASN11       0.1653
      3  C         51.8450    8.8870   75.1650 C.2    11  ASN11       0.2266
      4  O         51.8030   10.1110   75.0950 O.2    11  ASN11      -0.2867
      5  CB        50.3410    7.5620   73.6520 C.3    11  ASN11       0.1155
      6  CG        49.8380    6.6650   74.7420 C.2    11  ASN11       0.2627
      7  OD1       50.5030    5.6920   75.1380 O.2    11  ASN11      -0.2716
      8  ND2       48.6480    6.9800   75.2460 N.am   11  ASN11      -0.0877
      9  N         48.8080    0.8400   83.2750 N.3    37  VAL37      -0.1245
     10  CA        47.5740    1.5630   83.5170 C.3    37  VAL37       0.1561
     11  C         46.6700    0.8780   84.5590 C.2    37  VAL37       0.2260
     12  O         46.0340    1.5630   85.3500 O.2    37  VAL37      -0.2867
     13  CB        46.8260    1.7940   82.1830 C.3    37  VAL37       0.0252
     14  CG1       46.4260    0.4450   81.5900 C.3    37  VAL37       0.0019
     15  CG2       45.6340    2.7370   82.3890 C.3    37  VAL37       0.0019
     16  N         47.1820    9.6410   85.0160 N.3    53  LYS53      -0.1245
     17  CA        46.4950    9.1770   83.8160 C.3    53  LYS53       0.1561
     18  C         45.6130    8.0430   84.3640 C.2    53  LYS53       0.2260
     19  O         46.0250    7.3110   85.2850 O.2    53  LYS53      -0.2867
     20  CB        47.4860    8.6000   82.8180 C.3    53  LYS53       0.0271
     21  CG        46.8380    7.9510   81.5870 C.3    53  LYS53       0.0035
     22  CD        47.0360    6.4480   81.6280 C.3    53  LYS53       0.0206
     23  CE        47.1570    5.8380   80.2280 C.3    53  LYS53       0.1093
     24  NZ        46.9240    6.7990   79.1070 N.3    53  LYS53      -0.1314
     25  N         42.1580    5.1240   83.2280 N.3    55  SER55      -0.1217
     26  CA        41.2230    4.6630   82.2040 C.3    55  SER55       0.1889
     27  C         39.9510    5.4650   82.4250 C.2    55  SER55       0.2288
     28  O         39.5780    5.7240   83.5730 O.2    55  SER55      -0.2866
     29  CB        40.8950    3.1730   82.3900 C.3    55  SER55       0.2089
     30  OG        42.0320    2.3580   82.1820 O.3    55  SER55      -0.2183
     31  N         43.2960   10.3000   75.9330 N.3    74  ALA74      -0.1245
     32  CA        43.3420    9.4260   74.7550 C.3    74  ALA74       0.1562
     33  C         41.9090    9.1070   74.4170 C.2    74  ALA74       0.2260
     34  O         41.2260    8.4270   75.1820 O.2    74  ALA74      -0.2867
     35  CB        44.1080    8.1270   75.0800 C.3    74  ALA74       0.0290
     36  N         40.4080   -0.5900   71.3610 N.3    81  PRO81      -0.2116
     37  CA        41.0870   -1.8440   71.6790 C.3    81  PRO81       0.1372
     38  C         40.5790   -2.9050   70.7070 C.2    81  PRO81       0.2244
     39  O         39.4580   -2.8170   70.2150 O.2    81  PRO81      -0.2868
     40  CB        40.6230   -2.1380   73.1030 C.3    81  PRO81       0.0268
     41  CG        40.3970   -0.7130   73.6830 C.3    81  PRO81       0.0207
     42  CD        39.6890   -0.0360   72.5330 C.3    81  PRO81       0.0892
     43  N         39.9340   -1.2930   83.1020 N.3   104  THR104     -0.1203
     44  CA        40.2250   -0.5310   81.8750 C.3   104  THR104      0.1994
     45  C         38.9670   -0.2700   81.0440 C.2   104  THR104      0.2619
     46  O         37.9360   -0.9660   81.1390 O.2   104  THR104     -0.2717
     47  CB        41.2520   -1.2800   80.9650 C.3   104  THR104      0.1784
     48  OG1       40.7140   -2.5440   80.5490 O.3   104  THR104     -0.2211
     49  CG2       42.5570   -1.4990   81.7000 C.3   104  THR104      0.0376
     50  N         39.0270    0.7610   80.2130 N.am  105  THR105     -0.1938
     51  CA        37.9310    1.0570   79.3290 C.3   105  THR105      0.2028
     52  C         37.8380   -0.1160   78.3340 C.2   105  THR105      0.2642
     53  O         36.7540   -0.4860   77.9070 O.2   105  THR105     -0.2714
     54  CB        38.2080    2.3500   78.5730 C.3   105  THR105      0.1808
     55  OG1       38.4390    3.3940   79.5250 O.3   105  THR105     -0.2208
     56  CG2       37.0260    2.7100   77.6670 C.3   105  THR105      0.0379
     57  N         38.9830   -0.6930   77.9710 N.am  106  ALA106     -0.1977
     58  CA        38.9870   -1.8360   77.0530 C.3   106  ALA106      0.1597
     59  C         38.1070   -2.9500   77.6170 C.2   106  ALA106      0.2287
     60  O         37.2820   -3.5090   76.8970 O.2   106  ALA106     -0.2864
     61  CB        40.4040   -2.3700   76.8460 C.3   106  ALA106      0.0319
     62  N         45.6500   -3.7420   73.7840 N.3   142  ILE142     -0.1231
     63  CA        45.7710   -2.2930   73.8570 C.3   142  ILE142      0.1692
     64  C         47.2040   -1.8690   73.5500 C.2   142  ILE142      0.2592
     65  O         48.0560   -2.6950   73.2190 O.2   142  ILE142     -0.2718
     66  CB        45.3940   -1.7810   75.2710 C.3   142  ILE142      0.0266
     67  CG1       46.2770   -2.4670   76.3260 C.3   142  ILE142      0.0019
     68  CG2       43.9200   -2.0580   75.5460 C.3   142  ILE142      0.0020
     69  CD1       46.2000   -1.8400   77.7290 C.3   142  ILE142      0.0001
     70  N         47.4720   -0.5800   73.6770 N.am  143  HIS143     -0.1976
     71  CA        48.8070   -0.0650   73.4140 C.3   143  HIS143      0.1656
     72  C         49.3430   -0.4670   72.0510 C.2   143  HIS143      0.2291
     73  O         48.6000   -0.4940   71.0570 O.2   143  HIS143     -0.2864
     74  CB        49.7580   -0.5110   74.5150 C.3   143  HIS143      0.0771
     75  CG        49.3280   -0.0750   75.8790 C.ar  143  HIS143      0.0820
     76  ND1       48.5870    1.0700   76.0880 N.ar  143  HIS143     -0.2267
     77  CD2       49.5780   -0.5930   77.1070 C.ar  143  HIS143      0.1154
     78  CE1       48.4040    1.2390   77.3850 C.ar  143  HIS143      0.1986
     79  NE2       48.9940    0.2450   78.0260 N.ar  143  HIS143     -0.2212
     80  N         39.1790    6.6410   75.9500 N.3   174  LEU174     -0.1231
     81  CA        39.9550    5.5490   76.5000 C.3   174  LEU174      0.1693
     82  C         40.6340    5.9210   77.8030 C.2   174  LEU174      0.2592
     83  O         40.4330    5.2680   78.8440 O.2   174  LEU174     -0.2718
     84  CB        41.0350    5.0990   75.5000 C.3   174  LEU174      0.0284
     85  CG        40.5130    4.3220   74.2910 C.3   174  LEU174      0.0019
     86  CD1       41.6930    3.9770   73.3720 C.3   174  LEU174      0.0001
     87  CD2       39.8080    3.0610   74.7750 C.3   174  LEU174      0.0001
     88  N         41.4470    6.9700   77.7470 N.am  175  GLY175     -0.1957
     89  CA        42.1750    7.3960   78.9270 C.3   175  GLY175      0.1869
     90  C         42.0770    8.8860   79.1640 C.2   175  GLY175      0.2309
     91  O         41.9630    9.6540   78.2370 O.2   175  GLY175     -0.2863
@<TRIPOS>BOND
     1    39    38    2
     2    38    37    1
     3    73    72    2
     4    36    37    1
     5    36    42    1
     6    37    40    1
     7    72    71    1
     8    42    41    1
     9    40    41    1
    10    65    64    2
    11    86    85    1
    12    71    70    1
    13    71    74    1
    14    64    70   am
    15    64    63    1
    16     5     2    1
    17     5     6    1
    18    62    63    1
    19    63    66    1
    20     2     1    1
    21     2     3    1
    22    85    87    1
    23    85    84    1
    24    33    32    1
    25    33    34    2
    26    74    75    1
    27     6     7    2
    28     6     8   am
    29    32    35    1
    30    32    31    1
    31     4     3    2
    32    66    68    1
    33    66    67    1
    34    84    81    1
    35    75    76   ar
    36    75    77   ar
    37    80    81    1
    38    76    78   ar
    39    67    69    1
    40    81    82    1
    41    61    58    1
    42    60    59    2
    43    58    59    1
    44    58    57    1
    45    77    79   ar
    46    78    79   ar
    47    56    54    1
    48    88    82   am
    49    88    89    1
    50    82    83    2
    51    53    52    2
    52    57    52   am
    53    91    90    2
    54    52    51    1
    55    54    51    1
    56    54    55    1
    57    89    90    1
    58    24    23    1
    59    51    50    1
    60    50    45   am
    61    23    22    1
    62    48    47    1
    63    47    49    1
    64    47    44    1
    65    45    46    2
    66    45    44    1
    67    21    22    1
    68    21    20    1
    69    14    13    1
    70    44    43    1
    71    30    29    1
    72    13    15    1
    73    13    10    1
    74    26    29    1
    75    26    27    1
    76    26    25    1
    77    27    28    2
    78    20    17    1
    79     9    10    1
    80    10    11    1
    81    17    18    1
    82    17    16    1
    83    18    19    2
    84    11    12    2
