@<TRIPOS>MOLECULE
tmp/3a4aA00.pdb
 147 140 0 0 0
SMALL
GASTEIGER

@<TRIPOS>ATOM
      1  N         28.0320  -13.5610   25.7130 N.3    66  ASP66      -0.1239
      2  CA        27.2920  -12.6880   24.7990 C.3    66  ASP66       0.1674
      3  C         28.0550  -11.3710   24.6430 C.2    66  ASP66       0.2266
      4  O         27.4700  -10.2760   24.6250 O.2    66  ASP66      -0.2867
      5  CB        25.8480  -12.4760   25.3020 C.3    66  ASP66       0.1410
      6  CG        24.9500  -11.7450   24.2940 C.2    66  ASP66       0.3668
      7  OD1       25.2280  -11.7610   23.0760 O.co2  66  ASP66      -0.2456
      8  OD2       23.9340  -11.1700   24.7570 O.co2  66  ASP66      -0.2456
      9  N         27.3610   -8.5730   27.1730 N.3    69  TYR69      -0.1241
     10  CA        25.9770   -8.4450   27.6590 C.3    69  TYR69       0.1605
     11  C         25.6040   -9.4940   28.7230 C.2    69  TYR69       0.2264
     12  O         24.4540   -9.5390   29.1790 O.2    69  TYR69      -0.2867
     13  CB        24.9660   -8.3840   26.4940 C.3    69  TYR69       0.0534
     14  CG        25.0500   -7.0440   25.7890 C.ar   69  TYR69      -0.0201
     15  CD1       24.2860   -5.9460   26.2250 C.ar   69  TYR69      -0.0009
     16  CD2       25.9170   -6.8630   24.7030 C.ar   69  TYR69      -0.0009
     17  CE1       24.3860   -4.7100   25.5860 C.ar   69  TYR69       0.0417
     18  CE2       26.0340   -5.6290   24.0600 C.ar   69  TYR69       0.0417
     19  CZ        25.2720   -4.5540   24.5080 C.ar   69  TYR69       0.1957
     20  OH        25.4030   -3.3370   23.8750 O.3    69  TYR69      -0.2866
     21  N         19.0320   -9.1410   32.9370 N.3   109  HIS109     -0.1241
     22  CA        19.7270  -10.3940   33.2140 C.3   109  HIS109      0.1621
     23  C         21.1640  -10.0750   33.5610 C.2   109  HIS109      0.2264
     24  O         21.6690   -9.0120   33.2130 O.2   109  HIS109     -0.2867
     25  CB        19.7000  -11.3270   31.9960 C.3   109  HIS109      0.0745
     26  CG        20.0700  -10.6600   30.7060 C.ar  109  HIS109      0.0817
     27  ND1       19.1290  -10.0940   29.8690 N.ar  109  HIS109     -0.2268
     28  CD2       21.2710  -10.4700   30.1060 C.ar  109  HIS109      0.1154
     29  CE1       19.7340   -9.5850   28.8090 C.ar  109  HIS109      0.1986
     30  NE2       21.0350   -9.8000   28.9290 N.ar  109  HIS109     -0.2212
     31  N         18.0380  -16.4790   21.1690 N.3   156  PHE156     -0.1241
     32  CA        19.1200  -17.0380   20.3590 C.3   156  PHE156      0.1605
     33  C         18.8160  -18.4600   19.8600 C.2   156  PHE156      0.2264
     34  O         19.6920  -19.1210   19.3090 O.2   156  PHE156     -0.2867
     35  CB        20.4650  -17.0260   21.1140 C.3   156  PHE156      0.0534
     36  CG        20.9100  -15.6600   21.6190 C.ar  156  PHE156     -0.0203
     37  CD1       20.5720  -14.4800   20.9540 C.ar  156  PHE156     -0.0042
     38  CD2       21.7150  -15.5750   22.7520 C.ar  156  PHE156     -0.0042
     39  CE1       21.0160  -13.2310   21.4400 C.ar  156  PHE156     -0.0003
     40  CE2       22.1520  -14.3310   23.2420 C.ar  156  PHE156     -0.0003
     41  CZ        21.8020  -13.1660   22.5760 C.ar  156  PHE156     -0.0000
     42  N         17.9720  -15.0590   27.0020 N.3   175  PHE175     -0.1241
     43  CA        19.1180  -14.9650   26.0960 C.3   175  PHE175      0.1605
     44  C         19.9400  -16.2490   26.1330 C.2   175  PHE175      0.2264
     45  O         19.3370  -17.3220   25.9870 O.2   175  PHE175     -0.2867
     46  CB        19.8270  -13.6200   26.2840 C.3   175  PHE175      0.0534
     47  CG        18.9380  -12.4800   25.8770 C.ar  175  PHE175     -0.0203
     48  CD1       18.8490  -12.1220   24.5330 C.ar  175  PHE175     -0.0042
     49  CD2       18.0780  -11.8740   26.8050 C.ar  175  PHE175     -0.0042
     50  CE1       17.9650  -11.1020   24.1250 C.ar  175  PHE175     -0.0003
     51  CE2       17.1830  -10.8570   26.4070 C.ar  175  PHE175     -0.0003
     52  CZ        17.1240  -10.4800   25.0700 C.ar  175  PHE175     -0.0000
     53  N         22.1990    3.6760   28.0810 N.3   210  ARG210     -0.1245
     54  CA        21.4700    2.9970   27.0350 C.3   210  ARG210      0.1563
     55  C         20.9780    1.7210   27.7090 C.2   210  ARG210      0.2260
     56  O         21.7810    0.9410   28.2340 O.2   210  ARG210     -0.2867
     57  CB        22.3960    2.6800   25.8560 C.3   210  ARG210      0.0307
     58  CG        21.7160    1.9070   24.7470 C.3   210  ARG210      0.0489
     59  CD        21.8870    0.4030   24.9810 C.3   210  ARG210      0.2205
     60  NE        21.4900   -0.3730   23.8070 N.pl3 210  ARG210     -0.0865
     61  CZ        21.5040   -1.6970   23.7710 C.cat 210  ARG210      0.5346
     62  NH1       21.8750   -2.3900   24.8450 N.pl3 210  ARG210      0.1354
     63  NH2       21.1500   -2.3300   22.6590 N.pl3 210  ARG210      0.1354
     64  N         19.5100   -1.7720   27.9790 N.3   212  ASP212     -0.1225
     65  CA        19.4250   -3.0390   27.2460 C.3   212  ASP212      0.1805
     66  C         18.0930   -3.7670   27.4720 C.2   212  ASP212      0.2597
     67  O         17.7010   -4.0220   28.6080 O.2   212  ASP212     -0.2718
     68  CB        20.5960   -3.9410   27.6740 C.3   212  ASP212      0.1424
     69  CG        20.7570   -5.1630   26.7920 C.2   212  ASP212      0.3668
     70  OD1       21.1590   -4.9930   25.6230 O.co2 212  ASP212     -0.2456
     71  OD2       20.4960   -6.2950   27.2700 O.co2 212  ASP212     -0.2456
     72  N         17.4230   -4.1220   26.3730 N.am  213  VAL213     -0.1980
     73  CA        16.1200   -4.8120   26.4100 C.3   213  VAL213      0.1595
     74  C         15.2620   -4.3680   27.6050 C.2   213  VAL213      0.2287
     75  O         14.7340   -5.1840   28.3690 O.2   213  VAL213     -0.2864
     76  CB        16.2390   -6.3670   26.2560 C.3   213  VAL213      0.0276
     77  CG1       16.8060   -6.7060   24.8810 C.3   213  VAL213      0.0022
     78  CG2       17.1120   -7.0010   27.3560 C.3   213  VAL213      0.0022
     79  N         16.3570    0.4190   24.8960 N.3   274  GLU274     -0.1245
     80  CA        16.2870   -0.5020   23.7670 C.3   274  GLU274      0.1567
     81  C         15.0100   -1.3250   23.9530 C.2   274  GLU274      0.2260
     82  O         15.0370   -2.4090   24.5390 O.2   274  GLU274     -0.2867
     83  CB        17.5210   -1.4000   23.7270 C.3   274  GLU274      0.0388
     84  CG        17.5410   -2.3140   22.5090 C.3   274  GLU274      0.1160
     85  CD        18.3110   -3.5980   22.7320 C.2   274  GLU274      0.3649
     86  OE1       18.6160   -3.9470   23.8940 O.co2 274  GLU274     -0.2457
     87  OE2       18.6130   -4.2670   21.7270 O.co2 274  GLU274     -0.2457
     88  N         12.6880   -2.3830   21.6810 N.3   276  GLN276     -0.1245
     89  CA        12.4570   -3.4020   20.6400 C.3   276  GLN276      0.1566
     90  C         11.1880   -3.1680   19.8490 C.2   276  GLN276      0.2260
     91  O         11.2540   -2.8540   18.6570 O.2   276  GLN276     -0.2867
     92  CB        12.4900   -4.8320   21.2090 C.3   276  GLN276      0.0367
     93  CG        13.6640   -5.1090   22.1290 C.3   276  GLN276      0.0905
     94  CD        13.6920   -6.5450   22.6070 C.2   276  GLN276      0.2608
     95  OE1       13.1380   -6.8800   23.6670 O.2   276  GLN276     -0.2717
     96  NE2       14.3110   -7.4020   21.8200 N.am  276  GLN276     -0.0878
     97  N         12.4780   -1.3430   16.6270 N.3   300  PHE300     -0.1241
     98  CA        13.1910   -2.1590   15.6280 C.3   300  PHE300      0.1605
     99  C         12.5160   -2.3210   14.2580 C.2   300  PHE300      0.2264
    100  O         13.0650   -2.9940   13.3860 O.2   300  PHE300     -0.2867
    101  CB        13.4560   -3.5620   16.1810 C.3   300  PHE300      0.0534
    102  CG        14.3870   -3.6130   17.3670 C.ar  300  PHE300     -0.0203
    103  CD1       15.0490   -2.4720   17.8500 C.ar  300  PHE300     -0.0042
    104  CD2       14.6430   -4.8380   17.9680 C.ar  300  PHE300     -0.0042
    105  CE1       15.9180   -2.5610   18.9420 C.ar  300  PHE300     -0.0003
    106  CE2       15.5110   -4.9380   19.0580 C.ar  300  PHE300     -0.0003
    107  CZ        16.1490   -3.7940   19.5460 C.ar  300  PHE300     -0.0000
    108  N         25.5330   -2.5350   17.1230 N.3   348  HIS348     -0.1226
    109  CA        26.3570   -3.7500   17.2040 C.3   348  HIS348      0.1752
    110  C         25.5150   -5.0170   16.9870 C.2   348  HIS348      0.2596
    111  O         26.0570   -6.1300   16.9850 O.2   348  HIS348     -0.2718
    112  CB        27.0150   -3.8230   18.5740 C.3   348  HIS348      0.0759
    113  CG        26.0150   -3.9500   19.6670 C.ar  348  HIS348      0.0818
    114  ND1       25.1070   -2.9520   19.9540 N.ar  348  HIS348     -0.2268
    115  CD2       25.7150   -4.9880   20.4800 C.ar  348  HIS348      0.1154
    116  CE1       24.3060   -3.3640   20.9240 C.ar  348  HIS348      0.1986
    117  NE2       24.6520   -4.5990   21.2560 N.ar  348  HIS348     -0.2212
    118  N         24.2030   -4.8390   16.8150 N.am  349  ASP349     -0.1974
    119  CA        23.2700   -5.9500   16.5910 C.3   349  ASP349      0.1709
    120  C         22.7530   -6.0010   15.1560 C.2   349  ASP349      0.2293
    121  O         21.8710   -6.8190   14.8490 O.2   349  ASP349     -0.2864
    122  CB        22.0550   -5.8250   17.5140 C.3   349  ASP349      0.1436
    123  CG        22.3860   -6.0740   18.9740 C.2   349  ASP349      0.3671
    124  OD1       23.3280   -6.8450   19.2850 O.co2 349  ASP349     -0.2456
    125  OD2       21.6650   -5.5120   19.8210 O.co2 349  ASP349     -0.2456
    126  N         24.4000  -10.1130   13.2240 N.3   439  ARG439     -0.1245
    127  CA        25.0030   -9.0830   14.0810 C.3   439  ARG439      0.1563
    128  C         26.5000   -8.9870   13.8400 C.2   439  ARG439      0.2260
    129  O         27.0910   -7.9270   14.0440 O.2   439  ARG439     -0.2867
    130  CB        24.7410   -9.3930   15.5590 C.3   439  ARG439      0.0307
    131  CG        23.2600   -9.7310   15.8340 C.3   439  ARG439      0.0489
    132  CD        22.8670   -9.6890   17.3140 C.3   439  ARG439      0.2205
    133  NE        23.5900  -10.6610   18.1460 N.pl3 439  ARG439     -0.0865
    134  CZ        23.4560  -10.7710   19.4630 C.cat 439  ARG439      0.5346
    135  NH1       22.6140   -9.9800   20.1280 N.pl3 439  ARG439      0.1354
    136  NH2       24.1780  -11.6710   20.1280 N.pl3 439  ARG439      0.1354
    137  N         30.5600   -6.2960   13.7870 N.3   443  ARG443     -0.1245
    138  CA        31.4990   -6.6010   14.8740 C.3   443  ARG443      0.1563
    139  C         32.9380   -6.8730   14.4460 C.2   443  ARG443      0.2260
    140  O         33.8060   -7.0820   15.2960 O.2   443  ARG443     -0.2867
    141  CB        30.9650   -7.7590   15.7440 C.3   443  ARG443      0.0307
    142  CG        29.6140   -7.4520   16.3590 C.3   443  ARG443      0.0489
    143  CD        29.0930   -8.6180   17.1720 C.3   443  ARG443      0.2205
    144  NE        27.7980   -8.2610   17.7500 N.pl3 443  ARG443     -0.0865
    145  CZ        27.1930   -8.9420   18.7220 C.cat 443  ARG443      0.5346
    146  NH1       27.7610  -10.0280   19.2350 N.pl3 443  ARG443      0.1354
    147  NH2       26.0240   -8.5270   19.1970 N.pl3 443  ARG443      0.1354
@<TRIPOS>BOND
     1   126   127    1
     2   100    99    2
     3   137   138    1
     4   128   129    2
     5   128   127    1
     6   127   130    1
     7    99    98    1
     8   139   138    1
     9   139   140    2
    10   121   120    2
    11   138   141    1
    12   120   119    1
    13   130   131    1
    14    98   101    1
    15    98    97    1
    16   141   142    1
    17   131   132    1
    18   101   102    1
    19   142   143    1
    20   119   118    1
    21   119   122    1
    22   118   110   am
    23   111   110    2
    24   110   109    1
    25   108   109    1
    26   143   144    1
    27   109   112    1
    28   132   133    1
    29   102   103   ar
    30   102   104   ar
    31   122   123    1
    32   144   145    2
    33   103   105   ar
    34   104   106   ar
    35   133   134    2
    36   112   113    1
    37    91    90    2
    38   145   147    1
    39   145   146    1
    40   105   107   ar
    41   123   124   ar
    42   123   125   ar
    43   106   107   ar
    44    34    33    2
    45   134   136    1
    46   134   135    1
    47   113   114   ar
    48   113   115   ar
    49    90    89    1
    50    33    32    1
    51   114   116   ar
    52    32    35    1
    53    32    31    1
    54   115   117   ar
    55    89    92    1
    56    89    88    1
    57   116   117   ar
    58    37    39   ar
    59    37    36   ar
    60    35    36    1
    61    92    93    1
    62    39    41   ar
    63    36    38   ar
    64    87    85   ar
    65    96    94   am
    66    93    94    1
    67    84    85    1
    68    84    83    1
    69    41    40   ar
    70    94    95    2
    71    63    61    1
    72    85    86   ar
    73    38    40   ar
    74     7     6   ar
    75    83    80    1
    76    80    81    1
    77    80    79    1
    78    61    60    2
    79    61    62    1
    80    60    59    1
    81    20    19    1
    82    81    82    2
    83    18    19   ar
    84    18    16   ar
    85    50    48   ar
    86    50    52   ar
    87     6     8   ar
    88     6     5    1
    89    19    17   ar
    90    48    47   ar
    91     4     3    2
    92     3     2    1
    93    16    14   ar
    94    58    59    1
    95    58    57    1
    96     2     5    1
    97     2     1    1
    98    77    76    1
    99    52    51   ar
   100    17    15   ar
   101    70    69   ar
   102    14    15   ar
   103    14    13    1
   104    57    54    1
   105    47    46    1
   106    47    49   ar
   107    45    44    2
   108    43    44    1
   109    43    46    1
   110    43    42    1
   111    76    73    1
   112    76    78    1
   113    72    73    1
   114    72    66   am
   115    51    49   ar
   116    73    74    1
   117    13    10    1
   118    69    71   ar
   119    69    68    1
   120    54    55    1
   121    54    53    1
   122     9    10    1
   123    65    66    1
   124    65    68    1
   125    65    64    1
   126    66    67    2
   127    74    75    2
   128    10    11    1
   129    55    56    2
   130    11    12    2
   131    29    30   ar
   132    29    27   ar
   133    30    28   ar
   134    27    26   ar
   135    28    26   ar
   136    26    25    1
   137    25    22    1
   138    21    22    1
   139    24    23    2
   140    22    23    1
