@<TRIPOS>MOLECULE
tmp/3a4mA00.pdb
 106 102 0 0 0
SMALL
GASTEIGER

@<TRIPOS>ATOM
      1  N        -13.7420   -7.0390    3.8570 N.3    11  PRO11      -0.2102
      2  CA       -13.4850   -8.0190    4.9230 C.3    11  PRO11       0.1504
      3  C        -13.0540   -9.3670    4.3200 C.2    11  PRO11       0.2576
      4  O        -13.6010   -9.8520    3.3370 O.2    11  PRO11      -0.2718
      5  CB       -14.8110   -8.1350    5.6360 C.3    11  PRO11       0.0282
      6  CG       -15.5030   -6.7530    5.3410 C.3    11  PRO11       0.0208
      7  CD       -15.0650   -6.3970    3.9680 C.3    11  PRO11       0.0893
      8  N        -12.0130   -9.9180    4.9290 N.am   12  GLY12      -0.1943
      9  CA       -11.4590  -11.2110    4.5100 C.3    12  GLY12       0.2014
     10  C        -10.3920  -11.0700    3.4610 C.2    12  GLY12       0.2639
     11  O         -9.7740  -12.0670    3.0250 O.2    12  GLY12      -0.2714
     12  N        -10.1970   -9.8490    2.9580 N.am   13  VAL13      -0.1963
     13  CA        -9.2210   -9.6470    1.8930 C.3    13  VAL13       0.1727
     14  C         -7.7630   -9.9070    2.3090 C.2    13  VAL13       0.2617
     15  O         -6.9720  -10.2990    1.4430 O.2    13  VAL13      -0.2715
     16  CB        -9.3360   -8.3030    1.1290 C.3    13  VAL13       0.0290
     17  CG1       -8.6550   -7.1180    1.8650 C.3    13  VAL13       0.0023
     18  CG2       -8.8060   -8.4960   -0.3330 C.3    13  VAL13       0.0023
     19  N         -7.4410   -9.6810    3.5900 N.am   14  GLY14      -0.1940
     20  CA        -6.1740   -9.9990    4.1980 C.3    14  GLY14       0.2014
     21  C         -5.4400   -8.7170    4.6470 C.2    14  GLY14       0.2639
     22  O         -4.2090   -8.6790    4.6900 O.2    14  GLY14      -0.2714
     23  N         -6.1830   -7.6550    4.9790 N.am   15  LYS15      -0.1963
     24  CA        -5.5370   -6.4810    5.5750 C.3    15  LYS15       0.1728
     25  C         -4.7390   -6.7620    6.8300 C.2    15  LYS15       0.2617
     26  O         -3.6250   -6.2350    6.9800 O.2    15  LYS15      -0.2715
     27  CB        -6.6650   -5.4990    5.9180 C.3    15  LYS15       0.0311
     28  CG        -7.3890   -4.9350    4.6380 C.3    15  LYS15       0.0038
     29  CD        -8.4470   -3.8890    5.0350 C.3    15  LYS15       0.0206
     30  CE        -9.4420   -4.4760    6.0250 C.3    15  LYS15       0.1093
     31  NZ       -10.2230   -5.6190    5.4460 N.3    15  LYS15      -0.1314
     32  N         -5.3450   -7.4740    7.8230 N.am   16  SER16      -0.1936
     33  CA        -4.5810   -7.7030    9.0590 C.3    16  SER16       0.2055
     34  C         -3.3060   -8.5170    8.8220 C.2    16  SER16       0.2640
     35  O         -2.2610   -8.2040    9.3710 O.2    16  SER16      -0.2714
     36  CB        -5.4460   -8.2960   10.1590 C.3    16  SER16       0.2130
     37  OG        -6.4530   -7.3160   10.4850 O.3    16  SER16      -0.2179
     38  N         -3.4120   -9.5540    7.9920 N.am   17  THR17      -0.2003
     39  CA        -2.2830  -10.4460    7.7320 C.3    17  THR17       0.1584
     40  C         -1.2100   -9.6300    6.9930 C.3    17  THR17       0.2062
     41  O          0.0420   -9.6630    7.3330 O.3    17  THR17      -0.2184
     42  CB        -2.8040  -11.6290    6.8430 C.3    17  THR17       0.1745
     43  OG1       -3.8270  -12.3360    7.5790 O.3    17  THR17      -0.2212
     44  CG2       -1.6970  -12.5850    6.4130 C.3    17  THR17       0.0374
     45  N        -13.0320  -17.3360    2.2810 N.3   114  ARG114     -0.1245
     46  CA       -12.2250  -16.9740    3.4220 C.3   114  ARG114      0.1563
     47  C        -13.1580  -16.6770    4.6290 C.2   114  ARG114      0.2260
     48  O        -12.8380  -17.0160    5.7580 O.2   114  ARG114     -0.2867
     49  CB       -11.4090  -15.6990    3.1310 C.3   114  ARG114      0.0307
     50  CG       -10.2220  -16.0760    2.2190 C.3   114  ARG114      0.0489
     51  CD        -9.3250  -14.8900    1.9900 C.3   114  ARG114      0.2205
     52  NE        -8.2140  -15.2630    1.0740 N.pl3 114  ARG114     -0.0865
     53  CZ        -7.4220  -14.3070    0.6010 C.cat 114  ARG114      0.5346
     54  NH1       -7.6730  -13.0500    1.0080 N.pl3 114  ARG114      0.1354
     55  NH2       -6.4850  -14.5620   -0.2630 N.pl3 114  ARG114      0.1354
     56  N        -14.3600  -19.9630    6.0150 N.3   117  GLU117     -0.1231
     57  CA       -13.2480  -20.4360    6.8230 C.3   117  GLU117      0.1699
     58  C        -13.0250  -19.8130    8.2150 C.2   117  GLU117      0.2595
     59  O        -12.5210  -20.5150    9.0940 O.2   117  GLU117     -0.2718
     60  CB       -11.9460  -20.2710    6.0450 C.3   117  GLU117      0.0402
     61  CG       -11.4250  -21.5330    5.5360 C.3   117  GLU117      0.1161
     62  CD       -12.0570  -21.9500    4.2350 C.2   117  GLU117      0.3649
     63  OE1      -11.3220  -22.5230    3.3610 O.co2 117  GLU117     -0.2457
     64  OE2      -13.2850  -21.7330    4.0980 O.co2 117  GLU117     -0.2457
     65  N        -13.3160  -18.5210    8.3870 N.am  118  ARG118     -0.1934
     66  CA       -13.0390  -17.7860    9.6330 C.3   118  ARG118      0.1813
     67  C        -14.2400  -17.9870   10.5580 C.2   118  ARG118      0.2332
     68  O        -14.3180  -17.4040   11.6390 O.2   118  ARG118     -0.2860
     69  CB       -12.8550  -16.2460    9.4310 C.2   118  ARG118      0.0019
     70  CG       -11.7130  -15.7320    8.4990 C.2   118  ARG118      0.0178
     71  CD       -11.4200  -14.1190    8.5130 C.3   118  ARG118      0.2464
     72  NE       -12.6000  -13.2220    8.4090 N.pl3 118  ARG118     -0.0815
     73  CZ       -12.5700  -11.8630    8.4290 C.cat 118  ARG118      0.5349
     74  NH1      -11.4100  -11.2020    8.5270 N.pl3 118  ARG118      0.1354
     75  NH2      -13.7130  -11.1430    8.3650 N.pl3 118  ARG118      0.1354
     76  N         -4.5340  -10.2980   -3.4780 N.3   152  THR152     -0.1203
     77  CA        -4.0950  -11.1680   -2.3770 C.3   152  THR152      0.1994
     78  C         -4.2760  -12.6760   -2.6640 C.2   152  THR152      0.2619
     79  O         -4.1190  -13.4870   -1.7500 O.2   152  THR152     -0.2717
     80  CB        -4.7620  -10.8470   -1.0030 C.3   152  THR152      0.1784
     81  OG1       -6.1650  -10.9240   -1.1270 O.3   152  THR152     -0.2211
     82  CG2       -4.3530   -9.3670   -0.5750 C.3   152  THR152      0.0376
     83  N         -4.5980  -13.0300   -3.9050 N.am  153  THR153     -0.1938
     84  CA        -4.5640  -14.4650   -4.2910 C.3   153  THR153      0.2028
     85  C         -3.2680  -14.7330   -5.0530 C.2   153  THR153      0.2642
     86  O         -2.9690  -15.8890   -5.4690 O.2   153  THR153     -0.2714
     87  CB        -5.7580  -14.8800   -5.1980 C.3   153  THR153      0.1808
     88  OG1       -5.6090  -14.2540   -6.4610 O.3   153  THR153     -0.2208
     89  CG2       -7.0760  -14.4640   -4.5490 C.3   153  THR153      0.0379
     90  N         -2.4980  -13.6810   -5.2530 N.am  154  LYS154     -0.1977
     91  CA        -1.2300  -13.8560   -5.9260 C.3   154  LYS154      0.1596
     92  C         -0.0390  -13.6530   -4.9480 C.2   154  LYS154      0.2287
     93  O         -0.1790  -13.1450   -3.8120 O.2   154  LYS154     -0.2864
     94  CB        -1.1610  -12.9420   -7.1770 C.3   154  LYS154      0.0298
     95  CG        -2.2610  -13.1730   -8.2460 C.3   154  LYS154      0.0038
     96  CD        -2.0620  -12.2150   -9.4250 C.3   154  LYS154      0.0206
     97  CE        -2.5770  -12.7500  -10.7690 C.3   154  LYS154      0.1093
     98  NZ        -4.0440  -12.8200  -10.7630 N.3   154  LYS154     -0.1314
     99  N          2.7800  -12.2140   -2.8570 N.3   156  ILE156     -0.1245
    100  CA         3.0690  -10.8410   -2.5830 C.3   156  ILE156      0.1561
    101  C          4.5190  -10.6300   -2.0790 C.2   156  ILE156      0.2260
    102  O          4.9840  -11.2940   -1.1760 O.2   156  ILE156     -0.2867
    103  CB         1.9540  -10.1230   -1.7600 C.3   156  ILE156      0.0252
    104  CG1        2.4700   -9.7640   -0.4360 C.3   156  ILE156      0.0019
    105  CG2        0.5920  -10.8110   -1.7440 C.3   156  ILE156      0.0019
    106  CD1        2.7320   -8.3870   -0.5080 C.3   156  ILE156      0.0001
@<TRIPOS>BOND
     1    97    98    1
     2    97    96    1
     3    96    95    1
     4    95    94    1
     5    94    91    1
     6    88    87    1
     7    91    90    1
     8    91    92    1
     9    86    85    2
    10    90    85   am
    11    87    89    1
    12    87    84    1
    13    85    84    1
    14    92    93    2
    15    84    83    1
    16    83    78   am
    17    76    77    1
    18    99   100    1
    19    78    77    1
    20    78    79    2
    21   100   101    1
    22   100   103    1
    23    77    80    1
    24   101   102    2
    25   103   105    1
    26   103   104    1
    27    81    80    1
    28    80    82    1
    29   106   104    1
    30    18    16    1
    31    55    53    1
    32    53    54    1
    33    53    52    2
    34    52    51    1
    35    16    17    1
    36    16    13    1
    37    15    14    2
    38    13    14    1
    39    13    12    1
    40    51    50    1
    41    50    49    1
    42    45    46    1
    43    14    19   am
    44    12    10   am
    45    11    10    2
    46    49    46    1
    47     4     3    2
    48    63    62   ar
    49    46    47    1
    50    10     9    1
    51    19    20    1
    52     1     7    1
    53     1     2    1
    54     7     6    1
    55    64    62   ar
    56    20    21    1
    57    62    61    1
    58     3     2    1
    59     3     8   am
    60     9     8    1
    61    47    48    2
    62    28    29    1
    63    28    27    1
    64    21    22    2
    65    21    23   am
    66     2     5    1
    67    23    24    1
    68    29    30    1
    69     6     5    1
    70    31    30    1
    71    61    60    1
    72    24    27    1
    73    24    25    1
    74    56    57    1
    75    60    57    1
    76    44    42    1
    77    57    58    1
    78    25    26    2
    79    25    32   am
    80    42    43    1
    81    42    39    1
    82    40    41    1
    83    40    39    1
    84    39    38    1
    85    32    33    1
    86    38    34   am
    87    58    65   am
    88    58    59    2
    89    75    73    1
    90    65    66    1
    91    72    73    2
    92    72    71    1
    93    73    74    1
    94    70    71    1
    95    70    69    2
    96    34    33    1
    97    34    35    2
    98    33    36    1
    99    69    66    1
   100    66    67    1
   101    36    37    1
   102    67    68    2
