@<TRIPOS>MOLECULE
tmp/3a4oA00.pdb
 172 161 0 0 0
SMALL
GASTEIGER

@<TRIPOS>ATOM
      1  N          4.5100  -26.1320  -18.9960 N.3    16  LEU16      -0.1231
      2  CA         3.1920  -25.7120  -18.5180 C.3    16  LEU16       0.1693
      3  C          2.2970  -26.9300  -18.3420 C.2    16  LEU16       0.2593
      4  O          2.6750  -27.8870  -17.6560 O.2    16  LEU16      -0.2718
      5  CB         2.5310  -24.7390  -19.5010 C.3    16  LEU16       0.0284
      6  CG         3.2110  -23.3820  -19.7430 C.3    16  LEU16       0.0019
      7  CD1        2.4030  -22.5790  -20.7330 C.3    16  LEU16       0.0001
      8  CD2        3.3410  -22.6190  -18.4370 C.3    16  LEU16       0.0001
      9  N          1.1200  -26.9040  -18.9670 N.am   17  GLY17      -0.1942
     10  CA         0.2040  -28.0300  -18.8520 C.3    17  GLY17       0.2014
     11  C         -0.2080  -28.6460  -20.1770 C.2    17  GLY17       0.2638
     12  O          0.1030  -28.0990  -21.2350 O.2    17  GLY17      -0.2714
     13  N         -0.9130  -29.7790  -20.1180 N.am   18  ALA18      -0.1977
     14  CA        -1.3700  -30.4700  -21.3250 C.3    18  ALA18       0.1597
     15  C         -2.7120  -31.1620  -21.1330 C.2    18  ALA18       0.2287
     16  O         -3.2630  -31.1770  -20.0360 O.2    18  ALA18      -0.2864
     17  CB        -0.3330  -31.4870  -21.7650 C.3    18  ALA18       0.0319
     18  N          0.6380  -27.2360  -23.6530 N.3    24  VAL24      -0.1245
     19  CA         0.8840  -25.7990  -23.6640 C.3    24  VAL24       0.1561
     20  C          2.3100  -25.5430  -23.2020 C.2    24  VAL24       0.2260
     21  O          2.6800  -25.9480  -22.0980 O.2    24  VAL24      -0.2867
     22  CB        -0.0680  -25.0320  -22.7140 C.3    24  VAL24       0.0252
     23  CG1       -0.3340  -23.6370  -23.2670 C.3    24  VAL24       0.0019
     24  CG2       -1.3630  -25.7940  -22.5270 C.3    24  VAL24       0.0019
     25  N          2.9690  -18.5660  -24.7160 N.3    36  ALA36      -0.1245
     26  CA         2.4810  -19.9230  -24.5190 C.3    36  ALA36       0.1562
     27  C          2.0490  -20.3950  -25.8970 C.2    36  ALA36       0.2260
     28  O          1.5000  -19.6150  -26.6730 O.2    36  ALA36      -0.2867
     29  CB         1.2950  -19.9410  -23.5650 C.3    36  ALA36       0.0290
     30  N          0.0240  -23.6420  -27.8920 N.3    38  LYS38      -0.1245
     31  CA        -0.8080  -24.8390  -27.7970 C.3    38  LYS38       0.1561
     32  C         -0.3020  -25.8470  -28.8290 C.2    38  LYS38       0.2260
     33  O         -0.2380  -25.5480  -30.0190 O.2    38  LYS38      -0.2867
     34  CB        -2.2720  -24.4680  -28.0740 C.3    38  LYS38       0.0271
     35  CG        -3.3070  -25.4490  -27.5280 C.3    38  LYS38       0.0035
     36  CD        -4.7110  -24.9450  -27.8110 C.3    38  LYS38       0.0206
     37  CE        -5.7590  -25.7260  -27.0290 C.3    38  LYS38       0.1093
     38  NZ        -7.1390  -25.1590  -27.2040 N.3    38  LYS38      -0.1314
     39  N        -11.0200  -23.3270  -33.0640 N.3    53  GLU53      -0.1245
     40  CA       -11.1900  -22.5210  -31.8750 C.3    53  GLU53       0.1567
     41  C        -10.2070  -21.3510  -31.9430 C.2    53  GLU53       0.2260
     42  O        -10.2820  -20.4000  -31.1550 O.2    53  GLU53      -0.2867
     43  CB       -10.9600  -23.3990  -30.6430 C.3    53  GLU53       0.0388
     44  CG       -10.8490  -22.6670  -29.3380 C.3    53  GLU53       0.1160
     45  CD        -9.4330  -22.2310  -29.0660 C.2    53  GLU53       0.3649
     46  OE1       -8.5210  -23.0780  -29.2360 O.co2  53  GLU53      -0.2457
     47  OE2       -9.2330  -21.0550  -28.6780 O.co2  53  GLU53      -0.2457
     48  N        -11.4630  -16.6930  -31.0790 N.3    57  MET57      -0.1245
     49  CA       -10.7860  -15.5450  -30.4880 C.3    57  MET57       0.1570
     50  C        -10.0890  -14.7330  -31.5710 C.2    57  MET57       0.2261
     51  O         -9.6930  -13.5790  -31.3610 O.2    57  MET57      -0.2867
     52  CB        -9.7750  -15.9920  -29.4290 C.3    57  MET57       0.0387
     53  CG        -8.5650  -16.7460  -29.9560 C.3    57  MET57       0.0595
     54  SD        -7.3080  -16.8920  -28.6530 S.3    57  MET57      -0.1393
     55  CE        -7.8610  -18.3440  -27.8020 C.3    57  MET57       0.0692
     56  N         -8.1340  -13.9810  -22.7720 N.3    66  VAL66      -0.1245
     57  CA        -6.7820  -14.2780  -23.2280 C.3    66  VAL66       0.1561
     58  C         -6.8500  -14.1740  -24.7380 C.2    66  VAL66       0.2260
     59  O         -7.3270  -15.0770  -25.4000 O.2    66  VAL66      -0.2867
     60  CB        -6.3870  -15.7000  -22.8650 C.3    66  VAL66       0.0252
     61  CG1       -5.1390  -16.0870  -23.6110 C.3    66  VAL66       0.0019
     62  CG2       -6.2000  -15.8120  -21.3580 C.3    66  VAL66       0.0019
     63  N         -0.6190  -17.2810  -28.0940 N.3    82  THR82      -0.1203
     64  CA        -1.4210  -16.2780  -27.4060 C.3    82  THR82       0.1994
     65  C         -0.7260  -15.6560  -26.1940 C.2    82  THR82       0.2618
     66  O          0.3910  -16.0190  -25.8380 O.2    82  THR82      -0.2717
     67  CB        -2.7470  -16.8890  -26.9090 C.3    82  THR82       0.1784
     68  OG1       -2.4810  -17.7490  -25.7910 O.3    82  THR82      -0.2211
     69  CG2       -3.4120  -17.6960  -28.0160 C.3    82  THR82       0.0376
     70  N         -1.4330  -14.7220  -25.5670 N.am   83  GLU83      -0.1965
     71  CA        -0.9760  -14.0040  -24.3870 C.3    83  GLU83       0.1733
     72  C         -0.4730  -14.9920  -23.3260 C.2    83  GLU83       0.2616
     73  O         -0.9090  -16.1460  -23.2820 O.2    83  GLU83      -0.2715
     74  CB        -2.1570  -13.2310  -23.8080 C.3    83  GLU83       0.0429
     75  CG        -1.8370  -11.8950  -23.1830 C.3    83  GLU83       0.1163
     76  CD        -3.0700  -11.2420  -22.5810 C.2    83  GLU83       0.3649
     77  OE1       -4.1870  -11.4920  -23.0960 O.co2  83  GLU83      -0.2457
     78  OE2       -2.9250  -10.4690  -21.6030 O.co2  83  GLU83      -0.2457
     79  N          0.4480  -14.5450  -22.4760 N.am   84  TYR84      -0.1960
     80  CA         0.9830  -15.3970  -21.4200 C.3    84  TYR84       0.1771
     81  C          0.5030  -14.8550  -20.0800 C.2    84  TYR84       0.2619
     82  O          0.5280  -13.6570  -19.8520 O.2    84  TYR84      -0.2715
     83  CB         2.5050  -15.4240  -21.4300 C.3    84  TYR84       0.0574
     84  CG         3.0590  -16.1620  -20.2350 C.ar   84  TYR84      -0.0198
     85  CD1        2.5540  -17.4070  -19.8710 C.ar   84  TYR84      -0.0009
     86  CD2        4.0470  -15.6010  -19.4470 C.ar   84  TYR84      -0.0009
     87  CE1        3.0110  -18.0610  -18.7590 C.ar   84  TYR84       0.0417
     88  CE2        4.5160  -16.2520  -18.3280 C.ar   84  TYR84       0.0417
     89  CZ         3.9940  -17.4820  -17.9840 C.ar   84  TYR84       0.1957
     90  OH         4.4570  -18.1220  -16.8470 O.3    84  TYR84      -0.2866
     91  N          0.0780  -15.7420  -19.1900 N.am   85  MET85      -0.1963
     92  CA        -0.4180  -15.3450  -17.8790 C.3    85  MET85       0.1736
     93  C          0.3330  -16.0030  -16.7140 C.2    85  MET85       0.2616
     94  O         -0.2670  -16.7230  -15.9190 O.2    85  MET85      -0.2715
     95  CB        -1.8980  -15.6960  -17.7960 C.3    85  MET85       0.0427
     96  CG        -2.6720  -15.4130  -19.0720 C.3    85  MET85       0.0599
     97  SD        -2.8320  -13.6590  -19.4510 S.3    85  MET85      -0.1393
     98  CE        -4.2380  -13.2050  -18.3920 C.3    85  MET85       0.0692
     99  N          1.6340  -15.7310  -16.6100 N.am   86  ALA86      -0.1963
    100  CA         2.4870  -16.2860  -15.5550 C.3    86  ALA86       0.1728
    101  C          1.7790  -17.0050  -14.4090 C.2    86  ALA86       0.2616
    102  O          2.1280  -18.1490  -14.0840 O.2    86  ALA86      -0.2715
    103  CB         3.3680  -15.2090  -14.9970 C.3    86  ALA86       0.0334
    104  N          0.7930  -16.3450  -13.8010 N.am   87  LYS87      -0.1963
    105  CA         0.0450  -16.9360  -12.6850 C.3    87  LYS87       0.1728
    106  C         -0.6430  -18.2740  -12.9600 C.2    87  LYS87       0.2617
    107  O         -0.6940  -19.1350  -12.0830 O.2    87  LYS87      -0.2715
    108  CB        -1.0020  -15.9500  -12.1690 C.3    87  LYS87       0.0311
    109  CG        -0.5460  -15.0990  -10.9980 C.3    87  LYS87       0.0038
    110  CD         0.6310  -14.2160  -11.3650 C.3    87  LYS87       0.0206
    111  CE         0.9140  -13.2200  -10.2500 C.3    87  LYS87       0.1093
    112  NZ         1.0650  -13.8900   -8.9160 N.3    87  LYS87      -0.1314
    113  N         -1.1750  -18.4380  -14.1670 N.am   88  GLY88      -0.1940
    114  CA        -1.8570  -19.6700  -14.5230 C.3    88  GLY88       0.2014
    115  C         -3.3270  -19.6330  -14.1340 C.2    88  GLY88       0.2639
    116  O         -3.8490  -18.5910  -13.7310 O.2    88  GLY88      -0.2714
    117  N         -3.9970  -20.7760  -14.2550 N.am   89  SER89      -0.1949
    118  CA        -5.4210  -20.9130  -13.9240 C.3    89  SER89       0.1924
    119  C         -5.7680  -20.2630  -12.5820 C.2    89  SER89       0.2314
    120  O         -4.9670  -20.3300  -11.6400 O.2    89  SER89      -0.2863
    121  CB        -5.7690  -22.4100  -13.8770 C.3    89  SER89       0.2116
    122  OG        -7.1680  -22.6520  -13.7880 O.3    89  SER89      -0.2180
    123  N         -7.9910  -21.2430  -10.5920 N.3    91  LEU91      -0.1231
    124  CA        -8.2200  -22.3320   -9.6730 C.3    91  LEU91       0.1693
    125  C         -6.9520  -22.6450   -8.8870 C.2    91  LEU91       0.2592
    126  O         -6.9700  -22.6610   -7.6580 O.2    91  LEU91      -0.2718
    127  CB        -8.6480  -23.5790  -10.4300 C.3    91  LEU91       0.0284
    128  CG        -8.7340  -24.7570   -9.4630 C.3    91  LEU91       0.0019
    129  CD1       -9.8460  -24.5060   -8.4180 C.3    91  LEU91       0.0001
    130  CD2       -8.9680  -26.0190  -10.2530 C.3    91  LEU91       0.0001
    131  N         -5.8530  -22.8970   -9.5900 N.am   92  ASP92      -0.1974
    132  CA        -4.5980  -23.2070   -8.9120 C.3    92  ASP92       0.1709
    133  C         -4.1430  -22.0180   -8.0740 C.2    92  ASP92       0.2293
    134  O         -3.8840  -22.1520   -6.8780 O.2    92  ASP92      -0.2864
    135  CB        -3.4980  -23.5780   -9.9210 C.3    92  ASP92       0.1436
    136  CG        -3.8090  -24.8670  -10.7010 C.2    92  ASP92       0.3671
    137  OD1       -4.1950  -25.8900  -10.0820 O.co2  92  ASP92      -0.2456
    138  OD2       -3.6520  -24.8530  -11.9460 O.co2  92  ASP92      -0.2456
    139  N        -10.8530  -23.0300  -13.6610 N.3   134  ALA134     -0.1231
    140  CA        -9.7400  -23.6820  -14.3410 C.3   134  ALA134      0.1694
    141  C         -9.4820  -23.0300  -15.6970 C.2   134  ALA134      0.2592
    142  O         -8.3530  -22.9800  -16.1630 O.2   134  ALA134     -0.2718
    143  CB       -10.0580  -25.1480  -14.5370 C.3   134  ALA134      0.0304
    144  N        -10.5440  -22.5410  -16.3220 N.am  135  ASN135     -0.1974
    145  CA       -10.4620  -21.9000  -17.6130 C.3   135  ASN135      0.1688
    146  C        -10.1390  -20.4260  -17.5210 C.2   135  ASN135      0.2292
    147  O        -10.1650  -19.7280  -18.5280 O.2   135  ASN135     -0.2864
    148  CB       -11.7780  -22.0690  -18.3570 C.3   135  ASN135      0.1181
    149  CG       -11.9020  -23.4220  -19.0070 C.2   135  ASN135      0.2629
    150  OD1      -11.7960  -24.4530  -18.3510 O.2   135  ASN135     -0.2716
    151  ND2      -12.1320  -23.4270  -20.3150 N.am  135  ASN135     -0.0877
    152  N         -7.2730  -17.7260  -16.5760 N.3   137  LEU137     -0.1245
    153  CA        -5.8620  -17.5380  -16.2640 C.3   137  LEU137      0.1561
    154  C         -5.6550  -16.1840  -15.5930 C.2   137  LEU137      0.2260
    155  O         -6.4220  -15.2490  -15.8140 O.2   137  LEU137     -0.2867
    156  CB        -5.0290  -17.6390  -17.5470 C.3   137  LEU137      0.0270
    157  CG        -5.3190  -18.9030  -18.3650 C.3   137  LEU137      0.0019
    158  CD1       -4.7160  -18.8010  -19.7560 C.3   137  LEU137      0.0001
    159  CD2       -4.7820  -20.0970  -17.6310 C.3   137  LEU137      0.0001
    160  N         -9.8610  -17.6600  -20.6100 N.3   147  ALA147     -0.1231
    161  CA        -9.1490  -18.4130  -21.6330 C.3   147  ALA147      0.1694
    162  C         -9.9830  -19.5380  -22.2260 C.2   147  ALA147      0.2592
    163  O        -11.1510  -19.7390  -21.8790 O.2   147  ALA147     -0.2718
    164  CB        -7.8690  -18.9860  -21.0550 C.3   147  ALA147      0.0304
    165  N         -9.3600  -20.2770  -23.1320 N.am  148  ASP148     -0.1974
    166  CA       -10.0160  -21.3940  -23.7910 C.3   148  ASP148      0.1709
    167  C        -11.3310  -20.9970  -24.4470 C.2   148  ASP148      0.2293
    168  O        -12.0260  -20.0930  -23.9780 O.2   148  ASP148     -0.2864
    169  CB       -10.2550  -22.5190  -22.7870 C.3   148  ASP148      0.1436
    170  CG       -11.0570  -23.6540  -23.3730 C.2   148  ASP148      0.3671
    171  OD1      -12.2460  -23.4380  -23.6870 O.co2 148  ASP148     -0.2456
    172  OD2      -10.4980  -24.7580  -23.5240 O.co2 148  ASP148     -0.2456
@<TRIPOS>BOND
     1    39    40    1
     2    41    40    1
     3    41    42    2
     4    40    43    1
     5    50    51    2
     6    50    49    1
     7    48    49    1
     8    43    44    1
     9    49    52    1
    10    33    32    2
    11    53    52    1
    12    53    54    1
    13    44    45    1
    14    46    45   ar
    15    45    47   ar
    16    32    31    1
    17    54    55    1
    18    63    64    1
    19    34    31    1
    20    34    35    1
    21    69    67    1
    22    30    31    1
    23    36    35    1
    24    36    37    1
    25    64    67    1
    26    64    65    1
    27    38    37    1
    28    67    68    1
    29    28    27    2
    30    65    66    2
    31    65    70   am
    32    27    26    1
    33    70    71    1
    34    59    58    2
    35    58    57    1
    36    25    26    1
    37    26    29    1
    38   167   168    2
    39   167   166    1
    40    71    74    1
    41    71    72    1
    42    74    75    1
    43   166   165    1
    44   166   169    1
    45   171   170   ar
    46    19    18    1
    47    19    20    1
    48    19    22    1
    49    61    60    1
    50   172   170   ar
    51   170   169    1
    52    72    73    2
    53    72    79   am
    54    23    22    1
    55    57    60    1
    56    57    56    1
    57    20    21    2
    58    75    76    1
    59   165   162   am
    60    77    76   ar
    61    60    62    1
    62    22    24    1
    63    76    78   ar
    64    79    80    1
    65   162   163    2
    66   162   161    1
    67    17    14    1
    68   161   164    1
    69   161   160    1
    70    83    80    1
    71    83    84    1
    72    80    81    1
    73    14    15    1
    74    14    13    1
    75    12    11    2
    76    15    16    2
    77     7     6    1
    78   151   149   am
    79    84    85   ar
    80    84    86   ar
    81    11    13   am
    82    11    10    1
    83    81    82    2
    84    81    91   am
    85    85    87   ar
    86   158   157    1
    87     6     5    1
    88     6     8    1
    89     5     2    1
    90    97    96    1
    91    97    98    1
    92    86    88   ar
    93    91    92    1
    94    96    95    1
    95   149   148    1
    96   149   150    2
    97     1     2    1
    98     9    10    1
    99     9     3   am
   100    87    89   ar
   101   147   146    2
   102     2     3    1
   103   157   159    1
   104   157   156    1
   105   148   145    1
   106     3     4    2
   107    88    89   ar
   108    89    90    1
   109    92    95    1
   110    92    93    1
   111   145   146    1
   112   145   144    1
   113   156   153    1
   114    93    99   am
   115    93    94    2
   116    99   100    1
   117   152   153    1
   118   144   141   am
   119   153   154    1
   120   142   141    2
   121   155   154    2
   122   141   140    1
   123   100   103    1
   124   100   101    1
   125   143   140    1
   126   114   113    1
   127   114   115    1
   128   101   102    2
   129   101   104   am
   130   140   139    1
   131   117   115   am
   132   117   118    1
   133   113   106   am
   134   115   116    2
   135   118   121    1
   136   118   119    1
   137   121   122    1
   138   104   105    1
   139   106   105    1
   140   106   107    2
   141   105   108    1
   142   119   120    2
   143   108   109    1
   144   138   136   ar
   145   110   109    1
   146   110   111    1
   147   136   137   ar
   148   136   135    1
   149   123   124    1
   150   127   124    1
   151   127   128    1
   152   130   128    1
   153   111   112    1
   154   135   132    1
   155   124   125    1
   156   131   132    1
   157   131   125   am
   158   128   129    1
   159   132   133    1
   160   125   126    2
   161   133   134    2
