@<TRIPOS>MOLECULE
tmp/3a4pA00.pdb
 174 167 0 0 0
SMALL
GASTEIGER

@<TRIPOS>ATOM
      1  N        -16.0960  -16.9610   -1.7800 N.3    22  ILE22      -0.1231
      2  CA       -17.4290  -17.1080   -1.1840 C.3    22  ILE22       0.1692
      3  C        -17.7550  -15.9090   -0.2930 C.2    22  ILE22       0.2592
      4  O        -18.9220  -15.5440   -0.1180 O.2    22  ILE22      -0.2718
      5  CB       -17.5440  -18.3790   -0.2830 C.3    22  ILE22       0.0266
      6  CG1      -17.8450  -19.6400   -1.0790 C.3    22  ILE22       0.0019
      7  CG2      -18.6510  -18.2310    0.6770 C.3    22  ILE22       0.0020
      8  CD1      -17.5110  -20.8790   -0.3180 C.3    22  ILE22       0.0001
      9  N        -16.7270  -15.3010    0.2840 N.am   23  GLY23      -0.1957
     10  CA       -16.9350  -14.3960    1.4120 C.3    23  GLY23       0.1869
     11  C        -15.6200  -13.7790    1.8190 C.2    23  GLY23       0.2309
     12  O        -14.5630  -14.4030    1.6980 O.2    23  GLY23      -0.2863
     13  N        -12.8660  -16.9150    2.1180 N.3    30  VAL30      -0.1245
     14  CA       -13.5090  -18.2140    1.9980 C.3    30  VAL30       0.1561
     15  C        -13.6940  -18.5350    0.5130 C.2    30  VAL30       0.2260
     16  O        -14.1870  -17.6780   -0.2670 O.2    30  VAL30      -0.2867
     17  CB       -14.8870  -18.2650    2.7210 C.3    30  VAL30       0.0252
     18  CG1      -15.2410  -19.7100    3.0800 C.3    30  VAL30       0.0019
     19  CG2      -14.8940  -17.4100    3.9610 C.3    30  VAL30       0.0019
     20  N        -14.6320  -21.9600   -2.4130 N.3    32  HIS32      -0.1241
     21  CA       -15.1810  -23.2760   -2.5650 C.3    32  HIS32       0.1621
     22  C        -13.9790  -24.1820   -2.4740 C.2    32  HIS32       0.2264
     23  O        -12.8420  -23.7360   -2.7050 O.2    32  HIS32      -0.2867
     24  CB       -15.8100  -23.4470   -3.9350 C.3    32  HIS32       0.0745
     25  CG       -17.0820  -22.6790   -4.1460 C.ar   32  HIS32       0.0817
     26  ND1      -18.2850  -23.3020   -4.4080 N.ar   32  HIS32      -0.2268
     27  CD2      -17.3250  -21.3480   -4.2030 C.ar   32  HIS32       0.1154
     28  CE1      -19.2180  -22.3880   -4.5950 C.ar   32  HIS32       0.1986
     29  NE2      -18.6650  -21.1950   -4.4680 N.ar   32  HIS32      -0.2212
     30  N        -16.4470  -25.7080    1.8200 N.3    43  ALA43      -0.1245
     31  CA       -15.9810  -24.3250    1.8320 C.3    43  ALA43       0.1562
     32  C        -14.6630  -24.2760    2.5990 C.2    43  ALA43       0.2260
     33  O        -14.4960  -24.9890    3.6100 O.2    43  ALA43      -0.2867
     34  CB       -17.0130  -23.4000    2.4450 C.3    43  ALA43       0.0290
     35  N        -11.7380  -21.8020    4.3500 N.3    45  LYS45      -0.1245
     36  CA       -11.2090  -20.5270    4.8190 C.3    45  LYS45       0.1561
     37  C         -9.6850  -20.5370    4.9330 C.2    45  LYS45       0.2260
     38  O         -9.1230  -21.4200    5.5630 O.2    45  LYS45      -0.2867
     39  CB       -11.8190  -20.1230    6.1530 C.3    45  LYS45       0.0271
     40  CG       -11.7970  -18.6010    6.3500 C.3    45  LYS45       0.0035
     41  CD       -12.0990  -18.1410    7.7850 C.3    45  LYS45       0.0206
     42  CE       -11.9250  -16.6450    7.9090 C.3    45  LYS45       0.1093
     43  NZ       -11.8860  -16.2560    9.3420 N.3    45  LYS45      -0.1314
     44  N        -23.0290  -25.9490   12.7570 N.3    75  LEU75      -0.1245
     45  CA       -22.0740  -26.1660   11.6590 C.3    75  LEU75       0.1561
     46  C        -20.8700  -26.8590   12.1980 C.2    75  LEU75       0.2260
     47  O        -20.2810  -26.3750   13.1670 O.2    75  LEU75      -0.2867
     48  CB       -21.6480  -24.8560   10.9440 C.3    75  LEU75       0.0270
     49  CG       -20.8520  -25.0070    9.6240 C.3    75  LEU75       0.0019
     50  CD1      -21.5680  -25.8570    8.6600 C.3    75  LEU75       0.0001
     51  CD2      -20.5400  -23.6680    8.9880 C.3    75  LEU75       0.0001
     52  N        -14.7910  -26.6410    5.8870 N.3    92  LEU92      -0.1231
     53  CA       -16.1450  -26.6910    6.4250 C.3    92  LEU92       0.1678
     54  C        -17.1260  -27.3870    5.4340 C.2    92  LEU92       0.2434
     55  O        -16.9500  -27.2780    4.2210 O.2    92  LEU92      -0.2733
     56  CB       -16.6120  -25.2650    6.7300 C.3    92  LEU92       0.0284
     57  CG       -15.7700  -24.3400    7.6150 C.3    92  LEU92       0.0019
     58  CD1      -16.2390  -22.8780    7.4720 C.3    92  LEU92       0.0001
     59  CD2      -15.8000  -24.7850    9.0980 C.3    92  LEU92       0.0001
     60  N        -18.1820  -28.0790    5.9440 N.am   93  PRO93      -0.2718
     61  CA       -19.1230  -28.6150    4.9430 C.3    93  PRO93       0.1535
     62  C        -19.8080  -27.4930    4.1310 C.2    93  PRO93       0.2599
     63  O        -20.0530  -26.3680    4.6230 O.2    93  PRO93      -0.2715
     64  CB       -20.1350  -29.4150    5.7740 C.3    93  PRO93       0.0310
     65  CG       -20.0380  -28.8400    7.1370 C.3    93  PRO93       0.0237
     66  CD       -18.7560  -28.0860    7.2980 C.3    93  PRO93       0.0939
     67  N        -20.0620  -27.7800    2.8700 N.am   94  TYR94      -0.1960
     68  CA       -20.6670  -26.7980    2.0240 C.3    94  TYR94       0.1771
     69  C        -22.1970  -26.7160    2.2260 C.2    94  TYR94       0.2619
     70  O        -22.9290  -27.7280    2.1810 O.2    94  TYR94      -0.2715
     71  CB       -20.2940  -27.0830    0.5840 C.3    94  TYR94       0.0574
     72  CG       -20.8350  -26.0590   -0.3690 C.ar   94  TYR94      -0.0198
     73  CD1      -22.0080  -26.3080   -1.0890 C.ar   94  TYR94      -0.0009
     74  CD2      -20.2030  -24.8420   -0.5180 C.ar   94  TYR94      -0.0009
     75  CE1      -22.5150  -25.3800   -1.9740 C.ar   94  TYR94       0.0417
     76  CE2      -20.7050  -23.8980   -1.3760 C.ar   94  TYR94       0.0417
     77  CZ       -21.8550  -24.1720   -2.1110 C.ar   94  TYR94       0.1957
     78  OH       -22.3370  -23.2130   -2.9570 O.3    94  TYR94      -0.2866
     79  N        -22.6650  -25.4910    2.4340 N.am   95  MET95      -0.1963
     80  CA       -24.0520  -25.1920    2.7530 C.3    95  MET95       0.1736
     81  C        -24.7850  -24.6140    1.5390 C.2    95  MET95       0.2616
     82  O        -24.7420  -23.4120    1.3190 O.2    95  MET95      -0.2715
     83  CB       -24.0780  -24.2280    3.9270 C.3    95  MET95       0.0427
     84  CG       -23.5870  -24.8200    5.2490 C.3    95  MET95       0.0599
     85  SD       -24.5600  -26.2260    5.9000 S.3    95  MET95      -0.1393
     86  CE       -23.6250  -27.6820    5.4910 C.3    95  MET95       0.0692
     87  N        -25.4860  -25.4780    0.7820 N.am   96  LYS96      -0.1963
     88  CA       -26.1280  -25.1340   -0.5110 C.3    96  LYS96       0.1728
     89  C        -26.8460  -23.7590   -0.5820 C.2    96  LYS96       0.2616
     90  O        -26.6580  -23.0050   -1.5270 O.2    96  LYS96      -0.2715
     91  CB       -27.0840  -26.2690   -0.9540 C.3    96  LYS96       0.0311
     92  CG       -28.0150  -25.9210   -2.1490 C.3    96  LYS96       0.0038
     93  CD       -28.8110  -27.1370   -2.6460 C.3    96  LYS96       0.0206
     94  CE       -29.7310  -26.8520   -3.8570 C.3    96  LYS96       0.1093
     95  NZ       -31.0360  -27.5740   -3.6520 N.3    96  LYS96      -0.1314
     96  N        -27.6740  -23.4680    0.4140 N.am   97  HIS97      -0.1959
     97  CA       -28.5160  -22.2910    0.4000 C.3    97  HIS97       0.1787
     98  C        -27.8510  -21.0920    1.0570 C.2    97  HIS97       0.2621
     99  O        -28.4700  -20.0490    1.2090 O.2    97  HIS97      -0.2715
    100  CB       -29.9380  -22.6280    0.9460 C.3    97  HIS97       0.0785
    101  CG       -30.7250  -23.4760   -0.0160 C.ar   97  HIS97       0.0821
    102  ND1      -31.1160  -24.7690    0.2640 N.ar   97  HIS97      -0.2267
    103  CD2      -31.0700  -23.2540   -1.3110 C.ar   97  HIS97       0.1154
    104  CE1      -31.7050  -25.2900   -0.7990 C.ar   97  HIS97       0.1986
    105  NE2      -31.6850  -24.3950   -1.7690 N.ar   97  HIS97      -0.2212
    106  N        -26.5790  -21.2570    1.4390 N.am   98  GLY98      -0.1940
    107  CA       -25.7870  -20.1960    2.0440 C.3    98  GLY98       0.2014
    108  C        -26.4150  -19.6760    3.3040 C.2    98  GLY98       0.2638
    109  O        -27.1820  -20.3660    3.9460 O.2    98  GLY98      -0.2714
    110  N        -26.1050  -18.4480    3.6760 N.am   99  ASP99      -0.1971
    111  CA       -26.6450  -17.9320    4.9340 C.3    99  ASP99       0.1709
    112  C        -28.1850  -17.6290    4.9850 C.2    99  ASP99       0.2293
    113  O        -28.7880  -17.1880    4.0320 O.2    99  ASP99      -0.2864
    114  CB       -25.7700  -16.7820    5.4470 C.3    99  ASP99       0.1436
    115  CG       -26.1250  -15.4680    4.8270 C.2    99  ASP99       0.3671
    116  OD1      -27.1210  -14.9000    5.3000 O.co2  99  ASP99      -0.2456
    117  OD2      -25.4100  -14.9860    3.9060 O.co2  99  ASP99      -0.2456
    118  N        -27.4190  -13.8480    9.6310 N.3   143  ARG143     -0.1231
    119  CA       -26.3250  -13.8740    8.7020 C.3   143  ARG143      0.1694
    120  C        -25.2990  -14.9510    9.0770 C.2   143  ARG143      0.2592
    121  O        -24.5110  -15.3910    8.2320 O.2   143  ARG143     -0.2718
    122  CB       -25.6230  -12.4820    8.6340 C.3   143  ARG143      0.0321
    123  CG       -24.5380  -12.2790    9.7300 C.3   143  ARG143      0.0489
    124  CD       -24.2570  -10.8050   10.0170 C.3   143  ARG143      0.2205
    125  NE       -23.5010  -10.5190   11.2610 N.pl3 143  ARG143     -0.0865
    126  CZ       -23.9890   -9.8300   12.2920 C.cat 143  ARG143      0.5346
    127  NH1      -25.2210   -9.3370   12.2480 N.pl3 143  ARG143      0.1354
    128  NH2      -23.2540   -9.6520   13.3640 N.pl3 143  ARG143      0.1354
    129  N        -25.2430  -15.3050   10.3490 N.am  144  ASN144     -0.1974
    130  CA       -24.2470  -16.2540   10.8220 C.3   144  ASN144      0.1688
    131  C        -24.8280  -17.6740   11.0050 C.2   144  ASN144      0.2292
    132  O        -24.2530  -18.4860   11.7360 O.2   144  ASN144     -0.2864
    133  CB       -23.7140  -15.7950   12.1790 C.3   144  ASN144      0.1181
    134  CG       -22.7580  -14.6610   12.0860 C.2   144  ASN144      0.2629
    135  OD1      -22.1380  -14.4090   11.0510 O.2   144  ASN144     -0.2716
    136  ND2      -22.5880  -13.9660   13.2130 N.am  144  ASN144     -0.0877
    137  N        -26.4440  -21.0020    8.8070 N.3   146  MET146     -0.1245
    138  CA       -26.3650  -21.5100    7.4580 C.3   146  MET146      0.1570
    139  C        -27.5280  -22.4320    7.1940 C.2   146  MET146      0.2261
    140  O        -28.1950  -22.8760    8.1200 O.2   146  MET146     -0.2867
    141  CB       -25.0270  -22.1890    7.1450 C.3   146  MET146      0.0387
    142  CG       -23.8440  -21.3410    7.3880 C.3   146  MET146      0.0595
    143  SD       -23.5690  -20.0100    6.1780 S.3   146  MET146     -0.1393
    144  CE       -23.0260  -20.8990    4.7670 C.3   146  MET146      0.0692
    145  N        -23.5490  -21.0710   13.0370 N.3   156  ALA156     -0.1231
    146  CA       -22.1770  -21.0770   12.4990 C.3   156  ALA156      0.1694
    147  C        -21.3940  -19.9320   13.1220 C.2   156  ALA156      0.2592
    148  O        -21.8660  -19.3300   14.0930 O.2   156  ALA156     -0.2718
    149  CB       -22.1880  -20.9610   10.9460 C.3   156  ALA156      0.0304
    150  N        -20.2360  -19.6020   12.5390 N.am  157  ASP157     -0.1974
    151  CA       -19.4800  -18.3910   12.9000 C.3   157  ASP157      0.1709
    152  C        -18.8720  -18.4760   14.3100 C.2   157  ASP157      0.2293
    153  O        -18.8790  -17.5210   15.0610 O.2   157  ASP157     -0.2864
    154  CB       -20.3200  -17.0970   12.7270 C.3   157  ASP157      0.1436
    155  CG       -19.5170  -15.8260   13.0240 C.2   157  ASP157      0.3671
    156  OD1      -18.3770  -15.6770   12.5270 O.co2 157  ASP157     -0.2456
    157  OD2      -20.0220  -14.9490   13.7650 O.co2 157  ASP157     -0.2456
    158  N        -13.8480  -20.4440   12.4740 N.3   161  ALA161     -0.1245
    159  CA       -14.6650  -19.8940   11.3960 C.3   161  ALA161      0.1562
    160  C        -15.1970  -18.5120   11.7730 C.2   161  ALA161      0.2260
    161  O        -15.7840  -17.8070   10.9580 O.2   161  ALA161     -0.2867
    162  CB       -15.8350  -20.8410   11.1140 C.3   161  ALA161      0.0290
    163  N        -18.2400  -10.8780    8.6810 N.3   165  TYR165     -0.1241
    164  CA       -18.3680  -11.1080    7.2450 C.3   165  TYR165      0.1605
    165  C        -19.2010  -10.0390    6.4920 C.2   165  TYR165      0.2264
    166  O        -18.8730   -9.7020    5.3310 O.2   165  TYR165     -0.2867
    167  CB       -18.8810  -12.5400    6.9840 C.3   165  TYR165      0.0534
    168  CG       -17.9130  -13.6390    7.4160 C.ar  165  TYR165     -0.0201
    169  CD1      -18.1240  -14.3520    8.5960 C.ar  165  TYR165     -0.0009
    170  CD2      -16.7830  -13.9550    6.6390 C.ar  165  TYR165     -0.0009
    171  CE1      -17.2590  -15.3470    8.9950 C.ar  165  TYR165      0.0417
    172  CE2      -15.8930  -14.9520    7.0330 C.ar  165  TYR165      0.0417
    173  CZ       -16.1430  -15.6530    8.2130 C.ar  165  TYR165      0.1957
    174  OH       -15.2630  -16.6410    8.6280 O.3   165  TYR165     -0.2866
@<TRIPOS>BOND
     1    28    29   ar
     2    28    26   ar
     3    29    27   ar
     4    26    25   ar
     5    27    25   ar
     6    25    24    1
     7    24    21    1
     8    94    95    1
     9    94    93    1
    10    78    77    1
    11    23    22    2
    12    93    92    1
    13    21    22    1
    14    21    20    1
    15    92    91    1
    16    77    75   ar
    17    77    76   ar
    18    75    73   ar
    19     1     2    1
    20   105   103   ar
    21   105   104   ar
    22    90    89    2
    23    76    74   ar
    24   103   101   ar
    25     2     3    1
    26     2     5    1
    27    73    72   ar
    28     6     8    1
    29     6     5    1
    30    91    88    1
    31   104   102   ar
    32    89    88    1
    33    89    96   am
    34    74    72   ar
    35    88    87    1
    36    72    71    1
    37     3     4    2
    38     3     9   am
    39     5     7    1
    40    16    15    2
    41   101   102   ar
    42   101   100    1
    43     9    10    1
    44    97    96    1
    45    97   100    1
    46    97    98    1
    47    15    14    1
    48    71    68    1
    49    87    81   am
    50    98    99    2
    51    98   106   am
    52    82    81    2
    53    10    11    1
    54   106   107    1
    55    81    80    1
    56    12    11    2
    57    30    31    1
    58    31    34    1
    59    31    32    1
    60    14    13    1
    61    14    17    1
    62    68    69    1
    63    68    67    1
    64   107   108    1
    65    70    69    2
    66    69    79   am
    67    79    80    1
    68    32    33    2
    69    17    18    1
    70    17    19    1
    71    80    83    1
    72    67    62   am
    73   108   110   am
    74   108   109    2
    75   110   111    1
    76   117   115   ar
    77    83    84    1
    78   113   112    2
    79    62    63    2
    80    62    61    1
    81    55    54    2
    82    35    36    1
    83   144   143    1
    84    36    37    1
    85    36    39    1
    86   115   116   ar
    87   115   114    1
    88    37    38    2
    89   111   112    1
    90   111   114    1
    91    61    64    1
    92    61    60    1
    93    84    85    1
    94   166   165    2
    95    54    60   am
    96    54    53    1
    97    86    85    1
    98    64    65    1
    99    52    53    1
   100    60    66    1
   101    39    40    1
   102   143   142    1
   103    40    41    1
   104    53    56    1
   105   165   164    1
   106   170   172   ar
   107   170   168   ar
   108    56    57    1
   109   167   164    1
   110   167   168    1
   111   172   173   ar
   112    65    66    1
   113   141   142    1
   114   141   138    1
   115   139   138    1
   116   139   140    2
   117   164   163    1
   118   168   169   ar
   119   138   137    1
   120    58    57    1
   121    57    59    1
   122    41    42    1
   123    42    43    1
   124   173   174    1
   125   173   171   ar
   126   121   120    2
   127   169   171   ar
   128   122   119    1
   129   122   123    1
   130    50    49    1
   131   119   120    1
   132   119   118    1
   133    51    49    1
   134   120   129   am
   135    49    48    1
   136   123   124    1
   137   124   125    1
   138   129   130    1
   139   130   131    1
   140   130   133    1
   141    48    45    1
   142   149   146    1
   143   161   160    2
   144   131   132    2
   145   135   134    2
   146   162   159    1
   147   125   126    2
   148   159   160    1
   149   159   158    1
   150    45    46    1
   151    45    44    1
   152   134   133    1
   153   134   136   am
   154    46    47    2
   155   127   126    1
   156   126   128    1
   157   146   145    1
   158   146   147    1
   159   156   155   ar
   160   150   151    1
   161   150   147   am
   162   154   151    1
   163   154   155    1
   164   151   152    1
   165   155   157   ar
   166   147   148    2
   167   152   153    2
