@<TRIPOS>MOLECULE
tmp/3a4tA00.pdb
 191 183 0 0 0
SMALL
GASTEIGER

@<TRIPOS>ATOM
      1  N         11.8690  -32.4520  -20.9880 N.3    60  GLN60      -0.1245
      2  CA        11.6650  -31.5130  -19.8910 C.3    60  GLN60       0.1566
      3  C         10.1640  -31.3150  -19.6560 C.2    60  GLN60       0.2260
      4  O          9.3430  -31.5580  -20.5710 O.2    60  GLN60      -0.2867
      5  CB        12.3900  -30.1760  -20.1240 C.3    60  GLN60       0.0367
      6  CG        12.0520  -29.4230  -21.4210 C.3    60  GLN60       0.0905
      7  CD        12.8880  -28.1200  -21.5580 C.2    60  GLN60       0.2608
      8  OE1       13.4110  -27.8150  -22.6430 O.2    60  GLN60      -0.2717
      9  NE2       13.0390  -27.3710  -20.4610 N.am   60  GLN60      -0.0878
     10  N         21.7470  -16.1160  -17.2300 N.3    81  ASP81      -0.1225
     11  CA        21.0480  -17.2550  -16.6110 C.3    81  ASP81       0.1805
     12  C         21.7420  -17.5800  -15.2960 C.2    81  ASP81       0.2598
     13  O         22.7930  -18.2030  -15.2500 O.2    81  ASP81      -0.2718
     14  CB        21.0320  -18.4550  -17.5720 C.3    81  ASP81       0.1424
     15  CG        20.1500  -19.6260  -17.0870 C.2    81  ASP81       0.3668
     16  OD1       19.9550  -20.5720  -17.8670 O.co2  81  ASP81      -0.2456
     17  OD2       19.6730  -19.6720  -15.9240 O.co2  81  ASP81      -0.2456
     18  N         21.1330  -17.1350  -14.2060 N.am   82  MET82      -0.1965
     19  CA        21.8330  -17.1010  -12.9120 C.3    82  MET82       0.1736
     20  C         22.1730  -18.4360  -12.2990 C.2    82  MET82       0.2617
     21  O         23.1910  -18.5610  -11.6150 O.2    82  MET82      -0.2715
     22  CB        21.0360  -16.2590  -11.9220 C.3    82  MET82       0.0427
     23  CG        20.8960  -14.8000  -12.4030 C.3    82  MET82       0.0599
     24  SD        20.0890  -13.7640  -11.1690 S.3    82  MET82      -0.1393
     25  CE        21.1320  -13.9860   -9.7190 C.3    82  MET82       0.0692
     26  N         21.2680  -19.3960  -12.4370 N.am   83  CYS83      -0.1954
     27  CA        21.4430  -20.7130  -11.8050 C.3    83  CYS83       0.1843
     28  C         21.1370  -21.7460  -12.8990 C.2    83  CYS83       0.2625
     29  O         19.9700  -22.1930  -13.0600 O.2    83  CYS83      -0.2714
     30  CB        20.4810  -20.8480  -10.6220 C.3    83  CYS83       0.0997
     31  SG        20.6080  -19.4990   -9.3690 S.3    83  CYS83      -0.0797
     32  N         22.1430  -22.0620  -13.7090 N.am   84  ALA84      -0.1963
     33  CA        21.8140  -22.6020  -15.0300 C.3    84  ALA84       0.1728
     34  C         21.7220  -24.1160  -15.2550 C.2    84  ALA84       0.2616
     35  O         21.0470  -24.5310  -16.1860 O.2    84  ALA84      -0.2715
     36  CB        22.6590  -21.9160  -16.1500 C.3    84  ALA84       0.0334
     37  N         22.4440  -24.9300  -14.4840 N.am   85  ALA85      -0.1964
     38  CA        22.5510  -26.3600  -14.7980 C.3    85  ALA85       0.1713
     39  C         21.2330  -27.0030  -14.4770 C.2    85  ALA85       0.2458
     40  O         20.5780  -26.5760  -13.5320 O.2    85  ALA85      -0.2730
     41  CB        23.6530  -27.0290  -14.0410 C.3    85  ALA85       0.0333
     42  N         20.8500  -28.0460  -15.2320 N.am   86  PRO86      -0.2716
     43  CA        21.6480  -28.7080  -16.3100 C.3    86  PRO86       0.1536
     44  C         21.6110  -27.9810  -17.6640 C.2    86  PRO86       0.2599
     45  O         22.2060  -28.4790  -18.6110 O.2    86  PRO86      -0.2715
     46  CB        21.0100  -30.1410  -16.4670 C.3    86  PRO86       0.0310
     47  CG        19.8530  -30.1840  -15.5480 C.3    86  PRO86       0.0237
     48  CD        19.5860  -28.7420  -14.9630 C.3    86  PRO86       0.0939
     49  N         20.9420  -26.8440  -17.7790 N.am   87  GLY87      -0.1941
     50  CA        20.8290  -26.2290  -19.0800 C.3    87  GLY87       0.2014
     51  C         19.5810  -26.4370  -19.9120 C.2    87  GLY87       0.2639
     52  O         19.5390  -25.9870  -21.0670 O.2    87  GLY87      -0.2714
     53  N         18.5450  -27.0870  -19.3570 N.am   88  GLY88      -0.1939
     54  CA        17.2150  -27.0770  -20.0160 C.3    88  GLY88       0.2014
     55  C         16.7770  -25.7040  -20.5290 C.2    88  GLY88       0.2638
     56  O         16.5570  -25.5350  -21.7350 O.2    88  GLY88      -0.2714
     57  N         16.6570  -24.7270  -19.6080 N.am   89  LYS89      -0.1977
     58  CA        16.2820  -23.3200  -19.9330 C.3    89  LYS89       0.1596
     59  C         17.3820  -22.5380  -20.6250 C.2    89  LYS89       0.2287
     60  O         17.0680  -21.7070  -21.4450 O.2    89  LYS89      -0.2864
     61  CB        15.7830  -22.5550  -18.6810 C.3    89  LYS89       0.0298
     62  CG        14.6940  -23.3080  -17.8980 C.3    89  LYS89       0.0038
     63  CD        14.0750  -22.5810  -16.7460 C.3    89  LYS89       0.0206
     64  CE        13.1620  -23.5950  -15.9750 C.3    89  LYS89       0.1093
     65  NZ        14.0040  -24.6590  -15.2930 N.3    89  LYS89      -0.1314
     66  N         25.5660  -19.3030  -15.4270 N.3   106  VAL106     -0.1231
     67  CA        26.3060  -19.4190  -14.1710 C.3   106  VAL106      0.1692
     68  C         25.7620  -20.5930  -13.3230 C.2   106  VAL106      0.2592
     69  O         24.5370  -20.8480  -13.2420 O.2   106  VAL106     -0.2718
     70  CB        26.3110  -18.0700  -13.3860 C.3   106  VAL106      0.0266
     71  CG1       27.2050  -18.1190  -12.1030 C.3   106  VAL106      0.0020
     72  CG2       26.7620  -16.9640  -14.2460 C.3   106  VAL106      0.0020
     73  N         26.7070  -21.3400  -12.7550 N.am  107  GLU107     -0.1966
     74  CA        26.4050  -22.5890  -12.0420 C.3   107  GLU107      0.1733
     75  C         27.4200  -22.7570  -10.8910 C.2   107  GLU107      0.2616
     76  O         28.6500  -22.8590  -11.1400 O.2   107  GLU107     -0.2715
     77  CB        26.4390  -23.7750  -13.0100 C.3   107  GLU107      0.0429
     78  CG        26.2260  -25.1130  -12.3250 C.3   107  GLU107      0.1163
     79  CD        24.9680  -25.1200  -11.3850 C.2   107  GLU107      0.3649
     80  OE1       23.8590  -24.6100  -11.7590 O.co2 107  GLU107     -0.2457
     81  OE2       25.0920  -25.6350  -10.2550 O.co2 107  GLU107     -0.2457
     82  N         26.9330  -22.8060   -9.6600 N.am  108  ILE108     -0.1963
     83  CA        27.8280  -22.9630   -8.4730 C.3   108  ILE108      0.1727
     84  C         28.6280  -24.2840   -8.4130 C.2   108  ILE108      0.2616
     85  O         29.7910  -24.2740   -8.0230 O.2   108  ILE108     -0.2715
     86  CB        27.0660  -22.7050   -7.0950 C.3   108  ILE108      0.0290
     87  CG1       28.0200  -22.4620   -5.9360 C.3   108  ILE108      0.0022
     88  CG2       25.9950  -23.8320   -6.7210 C.3   108  ILE108      0.0023
     89  CD1       27.2870  -21.7010   -4.6770 C.3   108  ILE108      0.0001
     90  N         28.0060  -25.3940   -8.8160 N.am  109  SER109     -0.1950
     91  CA        28.5980  -26.7450   -8.6610 C.3   109  SER109      0.1924
     92  C         29.4610  -27.1020   -9.8610 C.2   109  SER109      0.2314
     93  O         29.0780  -26.7930  -10.9870 O.2   109  SER109     -0.2863
     94  CB        27.4780  -27.7610   -8.5040 C.3   109  SER109      0.2116
     95  OG        27.9130  -29.0360   -8.9090 O.3   109  SER109     -0.2180
     96  N         27.8580  -30.2170  -11.7160 N.3   112  ARG112     -0.1245
     97  CA        26.7050  -29.7900  -12.5000 C.3   112  ARG112      0.1563
     98  C         27.1210  -28.9430  -13.6690 C.2   112  ARG112      0.2260
     99  O         26.3920  -28.9310  -14.6580 O.2   112  ARG112     -0.2867
    100  CB        25.6600  -29.0400  -11.6650 C.3   112  ARG112      0.0307
    101  CG        24.9070  -29.9170  -10.7050 C.3   112  ARG112      0.0489
    102  CD        23.7140  -29.2060   -9.9460 C.3   112  ARG112      0.2205
    103  NE        23.1700  -30.2070   -9.0300 N.pl3 112  ARG112     -0.0865
    104  CZ        22.0860  -30.1240   -8.2410 C.cat 112  ARG112      0.5346
    105  NH1       21.2940  -29.0210   -8.1600 N.pl3 112  ARG112      0.1354
    106  NH2       21.7880  -31.1910   -7.5080 N.pl3 112  ARG112      0.1354
    107  N         30.6830  -20.6230  -10.9780 N.3   133  ALA133     -0.1231
    108  CA        30.9440  -19.7480   -9.8150 C.3   133  ALA133      0.1694
    109  C         29.6830  -19.5960   -8.9780 C.2   133  ALA133      0.2592
    110  O         28.5290  -19.8460   -9.4260 O.2   133  ALA133     -0.2718
    111  CB        31.4510  -18.3310  -10.2500 C.3   133  ALA133      0.0304
    112  N         29.9280  -19.1720   -7.7380 N.am  134  ASP134     -0.1960
    113  CA        28.8830  -18.7460   -6.8520 C.3   134  ASP134      0.1840
    114  C         28.4890  -17.3400   -7.3520 C.2   134  ASP134      0.2622
    115  O         29.3070  -16.3860   -7.2650 O.2   134  ASP134     -0.2715
    116  CB        29.4800  -18.7350   -5.4640 C.3   134  ASP134      0.1450
    117  CG        28.5030  -18.3560   -4.3940 C.2   134  ASP134      0.3671
    118  OD1       27.3880  -17.8950   -4.6860 O.co2 134  ASP134     -0.2456
    119  OD2       28.8880  -18.5010   -3.2180 O.co2 134  ASP134     -0.2456
    120  N         27.2810  -17.2390   -7.9330 N.am  135  MET135     -0.1963
    121  CA        26.6390  -15.9540   -8.3250 C.3   135  MET135      0.1736
    122  C         26.7720  -14.8780   -7.3100 C.2   135  MET135      0.2616
    123  O         26.9600  -13.7060   -7.6980 O.2   135  MET135     -0.2715
    124  CB        25.1220  -16.0610   -8.5680 C.3   135  MET135      0.0427
    125  CG        24.6270  -16.0580  -10.0110 C.3   135  MET135      0.0599
    126  SD        25.3520  -15.0110  -11.3070 S.3   135  MET135     -0.1393
    127  CE        25.4920  -13.4260  -10.6020 C.3   135  MET135      0.0692
    128  N         26.6240  -15.2540   -6.0290 N.am  136  ARG136     -0.1977
    129  CA        26.7170  -14.2520   -4.9580 C.3   136  ARG136      0.1597
    130  C         28.0880  -13.5880   -4.8840 C.2   136  ARG136      0.2287
    131  O         28.1770  -12.4520   -4.4020 O.2   136  ARG136     -0.2864
    132  CB        26.3470  -14.8120   -3.5990 C.3   136  ARG136      0.0334
    133  CG        24.9270  -15.3750   -3.5270 C.3   136  ARG136      0.0492
    134  CD        24.7550  -16.1280   -2.2340 C.3   136  ARG136      0.2205
    135  NE        25.5840  -17.3090   -2.2490 N.pl3 136  ARG136     -0.0865
    136  CZ        25.5740  -18.2800   -1.3410 C.cat 136  ARG136      0.5346
    137  NH1       24.7750  -18.2310   -0.2870 N.pl3 136  ARG136      0.1354
    138  NH2       26.3900  -19.3270   -1.5030 N.pl3 136  ARG136      0.1354
    139  N         16.1290  -18.5920  -12.7270 N.3   155  ASP155     -0.1225
    140  CA        15.4910  -19.8540  -12.4070 C.3   155  ASP155      0.1805
    141  C         16.1760  -20.5550  -11.1600 C.2   155  ASP155      0.2598
    142  O         17.1250  -21.3630  -11.2730 O.2   155  ASP155     -0.2718
    143  CB        15.3750  -20.7380  -13.6350 C.3   155  ASP155      0.1424
    144  CG        14.6890  -22.0950  -13.3400 C.2   155  ASP155      0.3668
    145  OD1       13.4750  -22.1330  -12.9490 O.co2 155  ASP155     -0.2456
    146  OD2       15.3780  -23.1400  -13.5320 O.co2 155  ASP155     -0.2456
    147  N         15.6290  -20.2390   -9.9890 N.am  156  ALA156     -0.1966
    148  CA        16.2730  -20.5180   -8.7450 C.3   156  ALA156      0.1713
    149  C         16.0520  -21.9610   -8.3550 C.2   156  ALA156      0.2458
    150  O         14.9750  -22.5000   -8.6180 O.2   156  ALA156     -0.2730
    151  CB        15.6900  -19.6380   -7.6870 C.3   156  ALA156      0.0333
    152  N         17.0450  -22.5670   -7.6750 N.am  157  PRO157     -0.2727
    153  CA        16.8360  -23.8570   -7.0100 C.3   157  PRO157      0.1402
    154  C         15.6180  -23.7520   -6.0710 C.2   157  PRO157      0.2269
    155  O         15.2820  -22.6430   -5.5670 O.2   157  PRO157     -0.2865
    156  CB        18.1320  -24.0470   -6.1510 C.3   157  PRO157      0.0296
    157  CG        18.7390  -22.5910   -6.0400 C.3   157  PRO157      0.0237
    158  CD        18.3960  -22.0210   -7.4240 C.3   157  PRO157      0.0939
    159  N         14.4150  -29.8230   -5.0370 N.3   161  ASN161     -0.1240
    160  CA        15.7280  -30.2120   -5.5960 C.3   161  ASN161      0.1653
    161  C         16.5120  -30.7750   -4.4580 C.2   161  ASN161      0.2266
    162  O         17.4800  -31.4930   -4.6600 O.2   161  ASN161     -0.2867
    163  CB        16.5500  -28.9750   -6.0040 C.3   161  ASN161      0.1155
    164  CG        16.2110  -28.3950   -7.3870 C.2   161  ASN161      0.2627
    165  OD1       16.5530  -27.2370   -7.6620 O.2   161  ASN161     -0.2716
    166  ND2       15.5820  -29.1920   -8.2580 N.am  161  ASN161     -0.0877
    167  N         17.6810  -18.1610    0.2030 N.3   173  ARG173     -0.1245
    168  CA        18.5620  -18.1500   -0.9560 C.3   173  ARG173      0.1563
    169  C         18.0080  -17.4020   -2.1410 C.2   173  ARG173      0.2260
    170  O         18.7010  -16.5860   -2.6870 O.2   173  ARG173     -0.2867
    171  CB        18.8870  -19.5430   -1.4010 C.3   173  ARG173      0.0307
    172  CG        20.1480  -19.5660   -2.3060 C.3   173  ARG173      0.0489
    173  CD        20.4450  -21.0170   -2.7530 C.3   173  ARG173      0.2205
    174  NE        21.7870  -21.1670   -3.3540 N.pl3 173  ARG173     -0.0865
    175  CZ        22.9310  -21.0320   -2.6900 C.cat 173  ARG173      0.5346
    176  NH1       22.9250  -20.7120   -1.3900 N.pl3 173  ARG173      0.1354
    177  NH2       24.0670  -21.2110   -3.3300 N.pl3 173  ARG173      0.1354
    178  N         19.2620  -14.1070   -4.2000 N.3   177  LEU177     -0.1245
    179  CA        19.5400  -14.1660   -5.6650 C.3   177  LEU177      0.1561
    180  C         18.8260  -13.0560   -6.4780 C.2   177  LEU177      0.2260
    181  O         19.4320  -12.4300   -7.3900 O.2   177  LEU177     -0.2867
    182  CB        19.1860  -15.5630   -6.1650 C.3   177  LEU177      0.0270
    183  CG        20.1980  -16.6820   -6.4310 C.3   177  LEU177      0.0019
    184  CD1       21.6490  -16.3460   -6.2040 C.3   177  LEU177      0.0001
    185  CD2       19.8140  -17.9560   -5.7450 C.3   177  LEU177      0.0001
    186  N         10.9170  -24.4040   -9.2220 N.3   196  CYS196     -0.1235
    187  CA        10.1660  -25.6780   -9.3570 C.3   196  CYS196      0.1677
    188  C          9.3700  -25.9980   -8.0950 C.2   196  CYS196      0.2270
    189  O          9.3110  -27.1250   -7.6620 O.2   196  CYS196     -0.2867
    190  CB        11.1240  -26.8440   -9.6910 C.3   196  CYS196      0.0956
    191  SG        12.8020  -26.6810   -8.9230 S.3   196  CYS196     -0.0801
@<TRIPOS>BOND
     1     8     7    2
     2    56    55    2
     3     7     6    1
     4     7     9   am
     5    60    59    2
     6     6     5    1
     7    52    51    2
     8     1     2    1
     9    59    58    1
    10     4     3    2
    11    55    54    1
    12    55    57   am
    13     5     2    1
    14    54    53    1
    15    58    57    1
    16    58    61    1
    17    51    53   am
    18    51    50    1
    19     2     3    1
    20    50    49    1
    21    61    62    1
    22    45    44    2
    23    62    63    1
    24    16    15   ar
    25    49    44   am
    26    44    43    1
    27    14    15    1
    28    14    11    1
    29    10    11    1
    30    15    17   ar
    31    63    64    1
    32    11    12    1
    33    46    43    1
    34    46    47    1
    35    43    42    1
    36    35    34    2
    37    36    33    1
    38    64    65    1
    39    47    48    1
    40    66    67    1
    41    12    13    2
    42    12    18   am
    43    34    33    1
    44    34    37   am
    45    42    48    1
    46    42    39   am
    47    33    32    1
    48    38    37    1
    49    38    39    1
    50    38    41    1
    51    99    98    2
    52    39    40    2
    53    72    70    1
    54    18    19    1
    55    67    70    1
    56    67    68    1
    57    32    28   am
    58    98    97    1
    59   143   144    1
    60   143   140    1
    61   146   144   ar
    62    70    71    1
    63   144   145   ar
    64    68    69    2
    65    68    73   am
    66    29    28    2
    67    77    78    1
    68    77    74    1
    69    19    20    1
    70    19    22    1
    71    28    27    1
    72    73    74    1
    73   139   140    1
    74    97    96    1
    75    97   100    1
    76    26    20   am
    77    26    27    1
    78   140   141    1
    79    23    22    1
    80    23    24    1
    81    78    79    1
    82    20    21    2
    83    74    75    1
    84    27    30    1
    85    80    79   ar
    86   100   101    1
    87    79    81   ar
    88   126   127    1
    89   126   125    1
    90   142   141    2
    91    24    25    1
    92   141   147   am
    93    76    75    2
    94    93    92    2
    95   107   108    1
    96    75    82   am
    97   101   102    1
    98    30    31    1
    99   111   108    1
   100   125   124    1
   101   147   148    1
   102   102   103    1
   103    92    91    1
   104   108   109    1
   105   190   187    1
   106   190   191    1
   107    82    83    1
   108   110   109    2
   109   187   186    1
   110   187   188    1
   111   103   104    2
   112   109   112   am
   113    95    94    1
   114    90    91    1
   115    90    84   am
   116   148   149    1
   117   148   151    1
   118    91    94    1
   119   150   149    2
   120   124   121    1
   121    83    84    1
   122    83    86    1
   123    84    85    2
   124   149   152   am
   125   121   120    1
   126   121   122    1
   127   166   164   am
   128   104   105    1
   129   104   106    1
   130   188   189    2
   131   120   114   am
   132   112   113    1
   133   123   122    2
   134   152   158    1
   135   152   153    1
   136   165   164    2
   137   158   157    1
   138   181   180    2
   139   164   163    1
   140   114   115    2
   141   114   113    1
   142   122   128   am
   143    86    88    1
   144    86    87    1
   145   153   156    1
   146   153   154    1
   147   113   116    1
   148   180   179    1
   149   183   184    1
   150   183   182    1
   151   183   185    1
   152   182   179    1
   153   156   157    1
   154   154   155    2
   155   128   129    1
   156   163   160    1
   157    87    89    1
   158   179   178    1
   159   160   159    1
   160   160   161    1
   161   116   117    1
   162   129   130    1
   163   129   132    1
   164   130   131    2
   165   118   117   ar
   166   162   161    2
   167   117   119   ar
   168   132   133    1
   169   133   134    1
   170   174   173    1
   171   174   175    2
   172   177   175    1
   173   173   172    1
   174   175   176    1
   175   170   169    2
   176   172   171    1
   177   135   134    1
   178   135   136    2
   179   169   168    1
   180   138   136    1
   181   171   168    1
   182   136   137    1
   183   168   167    1
