@<TRIPOS>MOLECULE
tmp/3a4xB00.pdb
 232 221 0 0 0
SMALL
GASTEIGER

@<TRIPOS>ATOM
      1  N          3.6930  -33.2450  -26.2970 N.3    15  TYR15      -0.1241
      2  CA         2.7850  -33.5070  -25.1880 C.3    15  TYR15       0.1605
      3  C          1.4300  -32.8280  -25.3500 C.2    15  TYR15       0.2264
      4  O          1.3640  -31.6610  -25.7510 O.2    15  TYR15      -0.2867
      5  CB         3.4180  -33.0280  -23.8650 C.3    15  TYR15       0.0534
      6  CG         4.5810  -33.9040  -23.4430 C.ar   15  TYR15      -0.0201
      7  CD1        5.8640  -33.6770  -23.9480 C.ar   15  TYR15      -0.0009
      8  CD2        4.3840  -34.9740  -22.5710 C.ar   15  TYR15      -0.0009
      9  CE1        6.9400  -34.5030  -23.5890 C.ar   15  TYR15       0.0417
     10  CE2        5.4490  -35.8030  -22.1880 C.ar   15  TYR15       0.0417
     11  CZ         6.7130  -35.5680  -22.7090 C.ar   15  TYR15       0.1957
     12  OH         7.7540  -36.3980  -22.3550 O.3    15  TYR15      -0.2866
     13  N         -1.8690  -32.2310  -22.7640 N.3    17  ASP17      -0.1239
     14  CA        -2.4800  -32.3830  -21.4500 C.3    17  ASP17       0.1674
     15  C         -3.9280  -32.7950  -21.6880 C.2    17  ASP17       0.2266
     16  O         -4.7740  -31.9610  -22.0520 O.2    17  ASP17      -0.2867
     17  CB        -2.4140  -31.0710  -20.6600 C.3    17  ASP17       0.1410
     18  CG        -3.0130  -31.1970  -19.2530 C.2    17  ASP17       0.3668
     19  OD1       -3.7030  -32.1970  -18.9560 O.co2  17  ASP17      -0.2456
     20  OD2       -2.7680  -30.2890  -18.4450 O.co2  17  ASP17      -0.2456
     21  N         -7.3790  -31.0760  -20.0760 N.3    20  LEU20      -0.1245
     22  CA        -7.9040  -29.7320  -20.3460 C.3    20  LEU20       0.1561
     23  C         -9.2930  -29.7950  -20.9690 C.2    20  LEU20       0.2260
     24  O         -9.5900  -30.6620  -21.8070 O.2    20  LEU20      -0.2867
     25  CB        -6.9720  -28.9220  -21.2450 C.3    20  LEU20       0.0270
     26  CG        -5.5470  -28.6650  -20.7540 C.3    20  LEU20       0.0019
     27  CD1       -4.7010  -28.1070  -21.8930 C.3    20  LEU20       0.0001
     28  CD2       -5.5340  -27.6910  -19.5710 C.3    20  LEU20       0.0001
     29  N         -1.3200  -36.5840  -18.2330 N.3    42  PHE42      -0.1241
     30  CA        -0.3710  -37.4640  -17.5570 C.3    42  PHE42       0.1605
     31  C         -1.2130  -38.4750  -16.8040 C.2    42  PHE42       0.2264
     32  O         -2.2720  -38.1200  -16.2610 O.2    42  PHE42      -0.2867
     33  CB         0.4190  -36.7160  -16.4670 C.3    42  PHE42       0.0534
     34  CG         1.4630  -35.7670  -16.9910 C.ar   42  PHE42      -0.0203
     35  CD1        1.2600  -34.3880  -16.9230 C.ar   42  PHE42      -0.0042
     36  CD2        2.6490  -36.2500  -17.5220 C.ar   42  PHE42      -0.0042
     37  CE1        2.2140  -33.5020  -17.3950 C.ar   42  PHE42      -0.0003
     38  CE2        3.6120  -35.3740  -18.0020 C.ar   42  PHE42      -0.0003
     39  CZ         3.3890  -33.9920  -17.9380 C.ar   42  PHE42      -0.0000
     40  N          4.8790  -35.9490  -14.3410 N.3    83  GLY83      -0.1210
     41  CA         4.7580  -34.5110  -14.6320 C.3    83  GLY83       0.1956
     42  C          4.9630  -33.6300  -13.4080 C.2    83  GLY83       0.2612
     43  O          5.3810  -34.0980  -12.3480 O.2    83  GLY83      -0.2717
     44  N          4.6470  -32.3430  -13.5510 N.am   84  ALA84      -0.1965
     45  CA         4.9750  -31.3480  -12.5170 C.3    84  ALA84       0.1728
     46  C          4.1160  -31.4560  -11.2660 C.2    84  ALA84       0.2616
     47  O          4.4990  -30.9470  -10.2070 O.2    84  ALA84      -0.2715
     48  CB         4.9030  -29.9240  -13.0880 C.3    84  ALA84       0.0334
     49  N          2.9560  -32.0930  -11.3790 N.am   85  VAL85      -0.1977
     50  CA         2.1100  -32.3130  -10.2050 C.3    85  VAL85       0.1596
     51  C          1.8960  -33.7900   -9.9620 C.2    85  VAL85       0.2287
     52  O          1.7250  -34.5640  -10.9080 O.2    85  VAL85      -0.2864
     53  CB         0.7570  -31.5410  -10.2710 C.3    85  VAL85       0.0276
     54  CG1        1.0130  -30.0740  -10.5740 C.3    85  VAL85       0.0022
     55  CG2       -0.1790  -32.1190  -11.3050 C.3    85  VAL85       0.0022
     56  N          7.7730  -39.3110  -16.8290 N.3   118  ALA118     -0.1245
     57  CA         8.1700  -37.9080  -16.7320 C.3   118  ALA118      0.1562
     58  C          8.3450  -37.5890  -15.2480 C.2   118  ALA118      0.2260
     59  O          7.4080  -37.1710  -14.5560 O.2   118  ALA118     -0.2867
     60  CB         7.1030  -37.0180  -17.3870 C.3   118  ALA118      0.0290
     61  N          9.7590  -35.6920  -12.2440 N.3   120  GLU120     -0.1245
     62  CA        10.2310  -34.3770  -11.8270 C.3   120  GLU120      0.1567
     63  C         10.5200  -34.3240  -10.3500 C.2   120  GLU120      0.2260
     64  O         11.3870  -33.5780   -9.9130 O.2   120  GLU120     -0.2867
     65  CB         9.2020  -33.3140  -12.1670 C.3   120  GLU120      0.0388
     66  CG         9.5440  -32.5460  -13.3970 C.3   120  GLU120      0.1160
     67  CD         8.3290  -32.2820  -14.2180 C.2   120  GLU120      0.3649
     68  OE1        7.7960  -31.1670  -14.1280 O.co2 120  GLU120     -0.2457
     69  OE2        7.8810  -33.2100  -14.9180 O.co2 120  GLU120     -0.2457
     70  N         11.6920  -39.0230  -19.1030 N.3   147  THR147     -0.1218
     71  CA        11.6610  -37.5880  -19.3880 C.3   147  THR147      0.1862
     72  C         11.9580  -36.8630  -18.1000 C.2   147  THR147      0.2287
     73  O         11.2820  -37.0700  -17.0900 O.2   147  THR147     -0.2866
     74  CB        10.3080  -37.1960  -19.9910 C.3   147  THR147      0.1770
     75  OG1       10.2060  -37.7910  -21.2830 O.3   147  THR147     -0.2211
     76  CG2       10.1690  -35.6680  -20.1430 C.3   147  THR147      0.0375
     77  N         14.1450  -33.5070  -15.7840 N.3   149  PRO149     -0.2102
     78  CA        14.6810  -32.1460  -15.7130 C.3   149  PRO149      0.1504
     79  C         16.1360  -32.0790  -16.1720 C.2   149  PRO149      0.2576
     80  O         16.8880  -33.0650  -16.0370 O.2   149  PRO149     -0.2718
     81  CB        14.5760  -31.8100  -14.2220 C.3   149  PRO149      0.0282
     82  CG        13.3970  -32.6200  -13.7630 C.3   149  PRO149      0.0208
     83  CD        13.5540  -33.9270  -14.4940 C.3   149  PRO149      0.0893
     84  N         16.5230  -30.9410  -16.7410 N.am  150  SER150     -0.1938
     85  CA        17.8720  -30.7960  -17.2610 C.3   150  SER150      0.2055
     86  C         18.3380  -29.3550  -17.1450 C.2   150  SER150      0.2643
     87  O         17.5310  -28.4540  -16.9030 O.2   150  SER150     -0.2714
     88  CB        17.9460  -31.2640  -18.7230 C.3   150  SER150      0.2130
     89  OG        17.3080  -30.3500  -19.6020 O.3   150  SER150     -0.2179
     90  N         19.6380  -29.1520  -17.3160 N.am  151  ASP151     -0.1971
     91  CA        20.2530  -27.8360  -17.1190 C.3   151  ASP151      0.1709
     92  C         21.5340  -27.8400  -17.9470 C.2   151  ASP151      0.2293
     93  O         22.2590  -28.8540  -17.9640 O.2   151  ASP151     -0.2864
     94  CB        20.5030  -27.6460  -15.6080 C.3   151  ASP151      0.1436
     95  CG        21.2560  -26.3760  -15.2700 C.2   151  ASP151      0.3671
     96  OD1       22.4210  -26.2410  -15.6890 O.co2 151  ASP151     -0.2456
     97  OD2       20.6890  -25.5290  -14.5460 O.co2 151  ASP151     -0.2456
     98  N         24.9150  -29.1240  -16.5440 N.3   154  ILE154     -0.1245
     99  CA        25.0200  -30.4480  -15.9270 C.3   154  ILE154      0.1561
    100  C         24.4390  -31.6100  -16.7470 C.2   154  ILE154      0.2260
    101  O         24.8120  -32.7550  -16.5160 O.2   154  ILE154     -0.2867
    102  CB        24.4010  -30.4970  -14.4910 C.3   154  ILE154      0.0252
    103  CG1       22.9410  -30.0440  -14.4820 C.3   154  ILE154      0.0019
    104  CG2       25.2430  -29.6750  -13.5010 C.3   154  ILE154      0.0019
    105  CD1       22.2440  -30.1600  -13.0830 C.3   154  ILE154      0.0001
    106  N         19.8890  -33.8320  -13.9020 N.3   157  ALA157     -0.1245
    107  CA        20.2220  -33.6010  -12.4950 C.3   157  ALA157      0.1562
    108  C         20.0840  -34.9130  -11.7180 C.2   157  ALA157      0.2260
    109  O         20.7020  -35.9210  -12.0880 O.2   157  ALA157     -0.2867
    110  CB        19.3270  -32.5090  -11.9050 C.3   157  ALA157      0.0290
    111  N         14.1820  -32.3680  -20.3840 N.3   179  MET179     -0.1245
    112  CA        13.3000  -31.2360  -20.6020 C.3   179  MET179      0.1570
    113  C         14.1830  -30.0070  -20.6150 C.2   179  MET179      0.2261
    114  O         14.6950  -29.5800  -19.5790 O.2   179  MET179     -0.2867
    115  CB        12.2310  -31.1960  -19.5230 C.3   179  MET179      0.0387
    116  CG        11.2510  -32.3580  -19.6760 C.3   179  MET179      0.0595
    117  SD         9.9590  -32.3690  -18.4530 S.3   179  MET179     -0.1393
    118  CE        10.8130  -33.0570  -17.0320 C.3   179  MET179      0.0692
    119  N         14.2980  -26.7800  -20.5750 N.3   181  MET181     -0.1230
    120  CA        13.4010  -25.6860  -20.2030 C.3   181  MET181      0.1702
    121  C         13.6640  -25.2760  -18.7620 C.2   181  MET181      0.2592
    122  O         14.1930  -26.0670  -17.9690 O.2   181  MET181     -0.2718
    123  CB        11.9360  -26.1340  -20.3140 C.3   181  MET181      0.0401
    124  CG        11.5740  -27.3090  -19.3870 C.3   181  MET181      0.0596
    125  SD         9.8400  -27.7970  -19.4120 S.3   181  MET181     -0.1393
    126  CE         9.7310  -28.6700  -20.9730 C.3   181  MET181      0.0692
    127  N         13.2770  -24.0430  -18.4240 N.am  182  ASP182     -0.1960
    128  CA        13.1230  -23.6340  -17.0300 C.3   182  ASP182      0.1840
    129  C         14.4040  -23.7710  -16.1970 C.2   182  ASP182      0.2622
    130  O         14.3870  -24.3710  -15.1130 O.2   182  ASP182     -0.2715
    131  CB        11.9630  -24.4210  -16.3830 C.3   182  ASP182      0.1450
    132  CG        10.5870  -23.9100  -16.8080 C.2   182  ASP182      0.3671
    133  OD1       10.4880  -22.7410  -17.2380 O.co2 182  ASP182     -0.2456
    134  OD2        9.5960  -24.6760  -16.7080 O.co2 182  ASP182     -0.2456
    135  N         15.5050  -23.2080  -16.6960 N.am  183  TYR183     -0.1960
    136  CA        16.7980  -23.2930  -15.9980 C.3   183  TYR183      0.1771
    137  C         16.9180  -22.1860  -14.9550 C.2   183  TYR183      0.2619
    138  O         17.7260  -22.2850  -14.0320 O.2   183  TYR183     -0.2715
    139  CB        17.9590  -23.1390  -16.9810 C.3   183  TYR183      0.0574
    140  CG        17.8520  -23.9760  -18.2230 C.ar  183  TYR183     -0.0198
    141  CD1       18.0070  -23.3860  -19.4880 C.ar  183  TYR183     -0.0009
    142  CD2       17.6130  -25.3540  -18.1480 C.ar  183  TYR183     -0.0009
    143  CE1       17.9260  -24.1480  -20.6420 C.ar  183  TYR183      0.0417
    144  CE2       17.5220  -26.1240  -19.3060 C.ar  183  TYR183      0.0417
    145  CZ        17.6740  -25.5100  -20.5430 C.ar  183  TYR183      0.1957
    146  OH        17.5920  -26.2520  -21.6950 O.3   183  TYR183     -0.2866
    147  N         16.1370  -21.1240  -15.1580 N.am  184  TYR184     -0.1974
    148  CA        16.0780  -19.9450  -14.2750 C.3   184  TYR184      0.1639
    149  C         17.3270  -19.0540  -14.2780 C.2   184  TYR184      0.2290
    150  O         17.1930  -17.8320  -14.2690 O.2   184  TYR184     -0.2864
    151  CB        15.5890  -20.3090  -12.8490 C.3   184  TYR184      0.0560
    152  CG        14.0960  -20.5770  -12.8120 C.ar  184  TYR184     -0.0198
    153  CD1       13.5670  -21.7920  -13.2660 C.ar  184  TYR184     -0.0009
    154  CD2       13.2010  -19.5940  -12.3750 C.ar  184  TYR184     -0.0009
    155  CE1       12.1770  -22.0230  -13.2750 C.ar  184  TYR184      0.0417
    156  CE2       11.8130  -19.8200  -12.3630 C.ar  184  TYR184      0.0417
    157  CZ        11.3070  -21.0330  -12.8170 C.ar  184  TYR184      0.1957
    158  OH         9.9360  -21.2500  -12.8150 O.3   184  TYR184     -0.2866
    159  N         13.0980  -32.0620  -25.2380 N.3   223  THR223     -0.1218
    160  CA        11.7520  -31.4990  -25.0500 C.3   223  THR223      0.1862
    161  C         11.8130  -30.0640  -24.4990 C.2   223  THR223      0.2287
    162  O         11.9560  -29.8720  -23.3010 O.2   223  THR223     -0.2866
    163  CB        10.8850  -32.4130  -24.1190 C.3   223  THR223      0.1770
    164  OG1       10.6880  -33.6730  -24.7700 O.3   223  THR223     -0.2211
    165  CG2        9.4990  -31.8100  -23.8210 C.3   223  THR223      0.0375
    166  N         10.0240  -26.2080  -23.8070 N.3   225  MET225     -0.1245
    167  CA         8.7220  -25.5990  -23.5580 C.3   225  MET225      0.1570
    168  C          8.5970  -24.4630  -24.5610 C.2   225  MET225      0.2261
    169  O          9.4230  -23.5430  -24.5610 O.2   225  MET225     -0.2867
    170  CB         8.6750  -25.0700  -22.1210 C.3   225  MET225      0.0387
    171  CG         7.3910  -24.3060  -21.7570 C.3   225  MET225      0.0595
    172  SD         7.3370  -24.0210  -19.9800 S.3   225  MET225     -0.1393
    173  CE         5.7380  -23.1970  -19.8350 C.3   225  MET225      0.0692
    174  N          8.3130  -20.9780  -17.8300 N.3   230  ASP230     -0.1239
    175  CA         7.8750  -20.5680  -16.4960 C.3   230  ASP230      0.1674
    176  C          8.8110  -19.5270  -15.8980 C.2   230  ASP230      0.2266
    177  O          8.3680  -18.6770  -15.1130 O.2   230  ASP230     -0.2867
    178  CB         7.7410  -21.7790  -15.5810 C.3   230  ASP230      0.1410
    179  CG         6.7630  -22.7890  -16.1280 C.2   230  ASP230      0.3668
    180  OD1        5.5530  -22.6000  -15.9360 O.co2 230  ASP230     -0.2456
    181  OD2        7.2110  -23.7650  -16.7680 O.co2 230  ASP230     -0.2456
    182  N          6.4850  -29.1020  -24.7820 N.3   258  TRP258     -0.1227
    183  CA         5.3530  -28.7610  -23.9420 C.3   258  TRP258      0.1737
    184  C          4.7570  -27.4330  -24.4530 C.2   258  TRP258      0.2596
    185  O          5.4030  -26.4010  -24.3260 O.2   258  TRP258     -0.2718
    186  CB         5.7750  -28.6210  -22.4570 C.3   258  TRP258      0.0564
    187  CG         4.5410  -28.5310  -21.6230 C.ar  258  TRP258      0.0003
    188  CD1        3.8800  -27.3940  -21.2580 C.ar  258  TRP258      0.0946
    189  CD2        3.7560  -29.6240  -21.1520 C.ar  258  TRP258      0.0152
    190  NE1        2.7430  -27.7120  -20.5520 N.ar  258  TRP258     -0.2442
    191  CE2        2.6350  -29.0780  -20.4870 C.ar  258  TRP258      0.0810
    192  CE3        3.8960  -31.0180  -21.2150 C.ar  258  TRP258      0.0012
    193  CZ2        1.6610  -29.8730  -19.8860 C.ar  258  TRP258      0.0191
    194  CZ3        2.9140  -31.8140  -20.6290 C.ar  258  TRP258      0.0001
    195  CH2        1.8120  -31.2390  -19.9720 C.ar  258  TRP258      0.0015
    196  N          3.5620  -27.4230  -25.0540 N.am  259  SER259     -0.1952
    197  CA         2.6800  -28.5620  -25.2810 C.3   259  SER259      0.1924
    198  C          1.8340  -28.2130  -26.5000 C.2   259  SER259      0.2314
    199  O          1.8860  -27.0860  -27.0060 O.2   259  SER259     -0.2863
    200  CB         1.7320  -28.7430  -24.0940 C.3   259  SER259      0.2116
    201  OG         0.9490  -27.5580  -23.9390 O.3   259  SER259     -0.2180
    202  N         -0.6060  -25.3190  -26.0830 N.3   262  ARG262     -0.1245
    203  CA         0.0630  -24.0300  -25.9960 C.3   262  ARG262      0.1563
    204  C          0.5210  -23.4700  -27.3400 C.2   262  ARG262      0.2260
    205  O          1.0230  -22.3410  -27.3970 O.2   262  ARG262     -0.2867
    206  CB         1.2450  -24.0880  -25.0160 C.3   262  ARG262      0.0307
    207  CG         0.8150  -24.4000  -23.5720 C.3   262  ARG262      0.0489
    208  CD         2.0160  -24.4320  -22.6100 C.3   262  ARG262      0.2205
    209  NE         2.5920  -23.0910  -22.4820 N.pl3 262  ARG262     -0.0865
    210  CZ         3.7530  -22.7020  -22.9960 C.cat 262  ARG262      0.5346
    211  NH1        4.5380  -23.5570  -23.6560 N.pl3 262  ARG262      0.1354
    212  NH2        4.1430  -21.4350  -22.8410 N.pl3 262  ARG262      0.1354
    213  N          2.4150  -16.8040  -19.1140 N.3   271  VAL271     -0.1231
    214  CA         2.4640  -18.2720  -19.0130 C.3   271  VAL271      0.1692
    215  C          1.0620  -18.8470  -18.8420 C.2   271  VAL271      0.2593
    216  O          0.3230  -18.4630  -17.9210 O.2   271  VAL271     -0.2718
    217  CB         3.4000  -18.7460  -17.8600 C.3   271  VAL271      0.0266
    218  CG1        3.3710  -20.2730  -17.7210 C.3   271  VAL271      0.0020
    219  CG2        4.8390  -18.2590  -18.1100 C.3   271  VAL271      0.0020
    220  N          0.6980  -19.7610  -19.7400 N.am  272  SER272     -0.1939
    221  CA        -0.6300  -20.3690  -19.7650 C.3   272  SER272      0.2040
    222  C         -0.5230  -21.7830  -20.3360 C.2   272  SER272      0.2485
    223  O          0.3760  -22.0360  -21.1470 O.2   272  SER272     -0.2729
    224  CB        -1.5300  -19.5470  -20.7000 C.3   272  SER272      0.2129
    225  OG        -2.7830  -20.1730  -20.9240 O.3   272  SER272     -0.2179
    226  N         -1.4520  -22.6860  -19.9490 N.am  273  PRO273     -0.2726
    227  CA        -1.5290  -23.9890  -20.6290 C.3   273  PRO273      0.1402
    228  C         -2.2740  -23.9370  -21.9800 C.2   273  PRO273      0.2269
    229  O         -2.3470  -24.9510  -22.6680 O.2   273  PRO273     -0.2865
    230  CB        -2.2890  -24.8580  -19.6270 C.3   273  PRO273      0.0296
    231  CG        -3.2080  -23.9000  -18.9370 C.3   273  PRO273      0.0237
    232  CD        -2.4060  -22.6080  -18.8200 C.3   273  PRO273      0.0939
@<TRIPOS>BOND
     1   205   204    2
     2   204   203    1
     3   199   198    2
     4   198   197    1
     5     1     2    1
     6   202   203    1
     7   203   206    1
     8     4     3    2
     9     3     2    1
    10   197   196    1
    11   197   200    1
    12   159   160    1
    13     2     5    1
    14   196   184   am
    15   160   161    1
    16   160   163    1
    17   206   207    1
    18   182   183    1
    19   164   163    1
    20   169   168    2
    21   168   167    1
    22   161   162    2
    23   184   185    2
    24   184   183    1
    25   163   165    1
    26   200   201    1
    27     7     9   ar
    28     7     6   ar
    29   183   186    1
    30     5     6    1
    31   166   167    1
    32   211   210    1
    33     9    11   ar
    34   207   208    1
    35   167   170    1
    36     6     8   ar
    37   210   212    1
    38   210   209    2
    39    13    14    1
    40    11    12    1
    41    11    10   ar
    42   229   228    2
    43   208   209    1
    44     8    10   ar
    45   186   187    1
    46   170   171    1
    47    16    15    2
    48   228   227    1
    49    27    26    1
    50    24    23    2
    51   171   172    1
    52   146   145    1
    53    15    14    1
    54   187   188   ar
    55   187   189   ar
    56    14    17    1
    57    75    74    1
    58   188   190   ar
    59    25    26    1
    60    25    22    1
    61   192   189   ar
    62   192   194   ar
    63   189   191   ar
    64   223   222    2
    65   126   125    1
    66    23    22    1
    67   225   224    1
    68    26    28    1
    69   224   221    1
    70    17    18    1
    71   143   145   ar
    72   143   141   ar
    73   194   195   ar
    74   227   226    1
    75   227   230    1
    76   113   112    1
    77   113   114    2
    78   112   111    1
    79   112   115    1
    80   119   120    1
    81   190   191   ar
    82   145   144   ar
    83   191   193   ar
    84    22    21    1
    85   222   226   am
    86   222   221    1
    87   123   120    1
    88   123   124    1
    89   120   121    1
    90    76    74    1
    91    74    71    1
    92   172   173    1
    93   195   193   ar
    94   226   232    1
    95   221   220    1
    96   220   215   am
    97   116   115    1
    98   116   117    1
    99   230   231    1
   100    89    88    1
   101   141   140   ar
   102   125   124    1
   103    71    70    1
   104    71    72    1
   105   144   142   ar
   106    18    19   ar
   107    18    20   ar
   108   213   214    1
   109   214   215    1
   110   214   217    1
   111   231   232    1
   112   215   216    2
   113   121   127   am
   114   121   122    2
   115    88    85    1
   116   117   118    1
   117   127   128    1
   118    29    30    1
   119   140   142   ar
   120   140   139    1
   121   219   217    1
   122    72    73    2
   123    38    39   ar
   124    38    36   ar
   125    93    92    2
   126    92    91    1
   127    39    37   ar
   128   217   218    1
   129   174   175    1
   130    30    31    1
   131    30    33    1
   132    36    34   ar
   133    37    35   ar
   134    60    57    1
   135    90    86   am
   136    90    91    1
   137    85    86    1
   138    85    84    1
   139   133   132   ar
   140    86    87    2
   141    91    94    1
   142   128   131    1
   143   128   129    1
   144    34    35   ar
   145    34    33    1
   146   139   136    1
   147    56    57    1
   148   132   134   ar
   149   132   131    1
   150    31    32    2
   151   181   179   ar
   152   100   101    2
   153   100    99    1
   154    84    79   am
   155    57    58    1
   156   135   129   am
   157   135   136    1
   158    98    99    1
   159   175   176    1
   160   175   178    1
   161   129   130    2
   162    79    80    2
   163    79    78    1
   164   179   180   ar
   165   179   178    1
   166   136   137    1
   167    99   102    1
   168   176   177    2
   169    77    78    1
   170    77    83    1
   171    78    81    1
   172    96    95   ar
   173    94    95    1
   174    95    97   ar
   175    58    59    2
   176   147   137   am
   177   147   148    1
   178   137   138    2
   179    69    67   ar
   180    41    40    1
   181    41    42    1
   182    83    82    1
   183   102   103    1
   184   102   104    1
   185   103   105    1
   186   149   148    1
   187   149   150    2
   188   148   151    1
   189    81    82    1
   190    67    68   ar
   191    67    66    1
   192   106   107    1
   193    44    42   am
   194    44    45    1
   195    42    43    2
   196    66    65    1
   197   155   153   ar
   198   155   157   ar
   199   153   152   ar
   200    48    45    1
   201   151   152    1
   202   157   158    1
   203   157   156   ar
   204   152   154   ar
   205    45    46    1
   206   107   110    1
   207   107   108    1
   208   154   156   ar
   209    61    62    1
   210    65    62    1
   211   109   108    2
   212    62    63    1
   213    49    46   am
   214    49    50    1
   215    55    53    1
   216    46    47    2
   217    52    51    2
   218    54    53    1
   219    63    64    2
   220    53    50    1
   221    50    51    1
