@<TRIPOS>MOLECULE
tmp/3a51D01.pdb
 155 143 0 0 0
SMALL
GASTEIGER

@<TRIPOS>ATOM
      1  N        -25.6570    4.5830  -53.0290 N.3    82  PRO82      -0.2102
      2  CA       -26.8910    5.2790  -53.4520 C.3    82  PRO82       0.1504
      3  C        -26.6420    6.5160  -54.3130 C.2    82  PRO82       0.2576
      4  O        -27.5620    6.9830  -54.9780 O.2    82  PRO82      -0.2718
      5  CB       -27.5310    5.7040  -52.1340 C.3    82  PRO82       0.0282
      6  CG       -26.3510    5.8720  -51.1820 C.3    82  PRO82       0.0208
      7  CD       -25.3560    4.8050  -51.6010 C.3    82  PRO82       0.0893
      8  N        -25.4090    7.0420  -54.2790 N.am   83  THR83      -0.1953
      9  CA       -24.9610    8.1640  -55.1010 C.3    83  THR83       0.1897
     10  C        -23.4180    8.0780  -55.0670 C.2    83  THR83       0.2313
     11  O        -22.8500    7.9190  -53.9780 O.2    83  THR83      -0.2863
     12  CB       -25.4910    9.5170  -54.5260 C.3    83  THR83       0.1794
     13  OG1      -24.7740   10.5960  -55.1020 O.3    83  THR83      -0.2208
     14  CG2      -25.3060    9.6150  -52.9980 C.3    83  THR83       0.0378
     15  N        -20.5930    9.1640  -54.4160 N.3    85  MET85      -0.1245
     16  CA       -19.7020   10.0360  -53.6090 C.3    85  MET85       0.1570
     17  C        -18.5860    9.2030  -52.9610 C.2    85  MET85       0.2261
     18  O        -18.8460    8.0880  -52.4360 O.2    85  MET85      -0.2867
     19  CB       -20.4840   10.6630  -52.4700 C.3    85  MET85       0.0387
     20  CG       -21.6390   11.5240  -52.8950 C.3    85  MET85       0.0595
     21  SD       -22.4500   12.1030  -51.4280 S.3    85  MET85      -0.1393
     22  CE       -23.5950   13.2960  -52.1710 C.3    85  MET85       0.0692
     23  N        -17.1320    9.3760  -50.2100 N.3    87  ILE87      -0.1231
     24  CA       -17.3180    9.1310  -48.7700 C.3    87  ILE87       0.1692
     25  C        -18.1780    7.8590  -48.5350 C.2    87  ILE87       0.2591
     26  O        -18.2700    7.3390  -47.4230 O.2    87  ILE87      -0.2718
     27  CB       -17.9700   10.3560  -48.0960 C.3    87  ILE87       0.0266
     28  CG1      -17.8260   10.2900  -46.5620 C.3    87  ILE87       0.0019
     29  CG2      -19.4710   10.5180  -48.5560 C.3    87  ILE87       0.0020
     30  CD1      -18.1500   11.6350  -45.8220 C.3    87  ILE87       0.0001
     31  N        -18.7840    7.3570  -49.6060 N.am   88  LEU88      -0.1980
     32  CA       -19.6280    6.1640  -49.5440 C.3    88  LEU88       0.1596
     33  C        -18.9310    4.9630  -50.2040 C.2    88  LEU88       0.2287
     34  O        -19.5670    3.9410  -50.4740 O.2    88  LEU88      -0.2864
     35  CB       -21.0130    6.4430  -50.1960 C.3    88  LEU88       0.0297
     36  CG       -21.8000    7.6780  -49.7190 C.3    88  LEU88       0.0022
     37  CD1      -23.1570    7.7260  -50.4740 C.3    88  LEU88       0.0001
     38  CD2      -22.0550    7.6970  -48.1860 C.3    88  LEU88       0.0001
     39  N        -30.9650   17.1030  -46.1960 N.3   170  LEU170     -0.1231
     40  CA       -30.1640   15.8750  -46.3110 C.3   170  LEU170      0.1693
     41  C        -29.3420   15.5030  -45.0630 C.2   170  LEU170      0.2591
     42  O        -29.0750   14.3180  -44.8210 O.2   170  LEU170     -0.2718
     43  CB       -29.2640   15.9320  -47.5530 C.3   170  LEU170      0.0284
     44  CG       -30.0420   15.9870  -48.8680 C.3   170  LEU170      0.0019
     45  CD1      -29.1720   16.3470  -50.0770 C.3   170  LEU170      0.0001
     46  CD2      -30.7010   14.6500  -49.0650 C.3   170  LEU170      0.0001
     47  N        -28.9610   16.4930  -44.2660 N.am  171  VAL171     -0.1980
     48  CA       -28.1890   16.2170  -43.0480 C.3   171  VAL171      0.1595
     49  C        -29.0420   16.1680  -41.7630 C.2   171  VAL171      0.2287
     50  O        -28.6110   15.6280  -40.7440 O.2   171  VAL171     -0.2864
     51  CB       -26.9770   17.1730  -42.9010 C.3   171  VAL171      0.0276
     52  CG1      -26.1470   17.1950  -44.1970 C.3   171  VAL171      0.0022
     53  CG2      -27.4110   18.5350  -42.5340 C.3   171  VAL171      0.0022
     54  N        -37.5400   10.4790  -44.9590 N.3   176  ALA176     -0.1245
     55  CA       -36.9550    9.9080  -46.1790 C.3   176  ALA176      0.1562
     56  C        -37.5730   10.4530  -47.4770 C.2   176  ALA176      0.2260
     57  O        -36.8780   10.5640  -48.4930 O.2   176  ALA176     -0.2867
     58  CB       -37.0270    8.3840  -46.1420 C.3   176  ALA176      0.0290
     59  N        -35.9570   13.7220  -48.1400 N.3   179  LYS179     -0.1231
     60  CA       -34.5390   13.5430  -48.4910 C.3   179  LYS179      0.1693
     61  C        -34.3550   13.0830  -49.9350 C.2   179  LYS179      0.2592
     62  O        -33.4000   13.4870  -50.6100 O.2   179  LYS179     -0.2718
     63  CB       -33.8350   12.5720  -47.5410 C.3   179  LYS179      0.0285
     64  CG       -33.6060   13.1380  -46.1520 C.3   179  LYS179      0.0035
     65  CD       -32.6030   12.3230  -45.3590 C.3   179  LYS179      0.0206
     66  CE       -32.4850   12.8660  -43.9210 C.3   179  LYS179      0.1093
     67  NZ       -31.1380   12.5810  -43.3240 N.3   179  LYS179     -0.1314
     68  N        -35.2630   12.2320  -50.4120 N.am  180  ASN180     -0.1974
     69  CA       -35.2280   11.8180  -51.8090 C.3   180  ASN180      0.1688
     70  C        -35.5590   12.9630  -52.7520 C.2   180  ASN180      0.2292
     71  O        -34.9070   13.1220  -53.7840 O.2   180  ASN180     -0.2864
     72  CB       -36.0810   10.5620  -52.0310 C.3   180  ASN180      0.1181
     73  CG       -35.4170    9.3170  -51.4460 C.2   180  ASN180      0.2629
     74  OD1      -34.1840    9.2860  -51.2890 O.2   180  ASN180     -0.2716
     75  ND2      -36.2140    8.2920  -51.1120 N.am  180  ASN180     -0.0877
     76  N        -32.5450   15.4180  -52.6560 N.3   183  MET183     -0.1245
     77  CA       -31.4730   14.7850  -53.4030 C.3   183  MET183      0.1570
     78  C        -31.6730   14.9220  -54.9160 C.2   183  MET183      0.2261
     79  O        -30.7570   15.3060  -55.6430 O.2   183  MET183     -0.2867
     80  CB       -31.4320   13.3140  -53.0400 C.3   183  MET183      0.0387
     81  CG       -30.4720   12.4850  -53.8320 C.3   183  MET183      0.0595
     82  SD       -28.7570   12.8260  -53.4210 S.3   183  MET183     -0.1393
     83  CE       -28.8200   13.0470  -51.6520 C.3   183  MET183      0.0692
     84  N        -21.4270   16.3810  -52.7680 N.3   231  LEU231     -0.1245
     85  CA       -20.6730   16.1440  -51.5170 C.3   231  LEU231      0.1561
     86  C        -19.9850   17.4170  -51.0100 C.2   231  LEU231      0.2260
     87  O        -20.0990   17.7960  -49.8350 O.2   231  LEU231     -0.2867
     88  CB       -19.6260   15.0470  -51.7560 C.3   231  LEU231      0.0270
     89  CG       -18.7070   14.7130  -50.5670 C.3   231  LEU231      0.0019
     90  CD1      -19.5950   14.3520  -49.3420 C.3   231  LEU231      0.0001
     91  CD2      -17.7910   13.5940  -50.9720 C.3   231  LEU231      0.0001
     92  N        -22.5550   20.1420  -49.9810 N.3   234  ILE234     -0.1231
     93  CA       -23.2060   19.8620  -48.6980 C.3   234  ILE234      0.1692
     94  C        -22.2310   20.0800  -47.5480 C.2   234  ILE234      0.2591
     95  O        -22.5700   20.7260  -46.5780 O.2   234  ILE234     -0.2718
     96  CB       -23.8580   18.4460  -48.6550 C.3   234  ILE234      0.0266
     97  CG1      -25.0120   18.3540  -49.6820 C.3   234  ILE234      0.0019
     98  CG2      -24.3860   18.1210  -47.2230 C.3   234  ILE234      0.0020
     99  CD1      -25.4770   16.8950  -50.0050 C.3   234  ILE234      0.0001
    100  N        -21.0030   19.5660  -47.6780 N.am  235  ALA235     -0.1980
    101  CA       -19.9420   19.8210  -46.6770 C.3   235  ALA235      0.1597
    102  C        -19.7190   21.3350  -46.4510 C.2   235  ALA235      0.2287
    103  O        -19.5160   21.7780  -45.3040 O.2   235  ALA235     -0.2864
    104  CB       -18.6680   19.1580  -47.1150 C.3   235  ALA235      0.0319
    105  N        -22.8810   22.6100  -44.1450 N.3   238  GLU238     -0.1231
    106  CA       -23.3890   21.8930  -42.9630 C.3   238  GLU238      0.1699
    107  C        -22.3670   21.4450  -41.9440 C.2   238  GLU238      0.2592
    108  O        -22.6950   20.6150  -41.0900 O.2   238  GLU238     -0.2718
    109  CB       -24.1700   20.6300  -43.3820 C.3   238  GLU238      0.0402
    110  CG       -25.2070   20.8290  -44.5170 C.3   238  GLU238      0.1161
    111  CD       -26.3380   21.7600  -44.1230 C.2   238  GLU238      0.3649
    112  OE1      -26.6620   21.8710  -42.9170 O.co2 238  GLU238     -0.2457
    113  OE2      -26.9160   22.3850  -45.0410 O.co2 238  GLU238     -0.2457
    114  N        -21.1450   21.9510  -42.0250 N.am  239  THR239     -0.1953
    115  CA       -20.0720   21.4910  -41.1260 C.3   239  THR239      0.1897
    116  C        -19.4610   22.6610  -40.3540 C.2   239  THR239      0.2313
    117  O        -19.7100   22.8360  -39.1570 O.2   239  THR239     -0.2863
    118  CB       -18.9480   20.6960  -41.9210 C.3   239  THR239      0.1794
    119  OG1      -18.4770   21.4930  -43.0170 O.3   239  THR239     -0.2208
    120  CG2      -19.4870   19.4260  -42.5190 C.3   239  THR239      0.0378
    121  N        -19.5100   17.4270  -36.2270 N.3   282  VAL282     -0.1245
    122  CA       -20.0210   16.1710  -36.7420 C.3   282  VAL282      0.1561
    123  C        -20.0210   15.2370  -35.5390 C.2   282  VAL282      0.2260
    124  O        -18.9560   14.8060  -35.0550 O.2   282  VAL282     -0.2867
    125  CB       -19.1770   15.6840  -37.9870 C.3   282  VAL282      0.0252
    126  CG1      -19.6510   14.3140  -38.4970 C.3   282  VAL282      0.0019
    127  CG2      -19.2340   16.7500  -39.1140 C.3   282  VAL282      0.0019
    128  N        -20.7340    9.4090  -40.5640 N.3   286  PRO286     -0.2116
    129  CA       -21.6340    8.6590  -41.4450 C.3   286  PRO286      0.1372
    130  C        -21.3320    7.1560  -41.3330 C.2   286  PRO286      0.2244
    131  O        -20.1870    6.7380  -41.1320 O.2   286  PRO286     -0.2868
    132  CB       -21.2770    9.1740  -42.8550 C.3   286  PRO286      0.0268
    133  CG       -20.5910   10.4940  -42.6290 C.3   286  PRO286      0.0207
    134  CD       -19.9230   10.4050  -41.3030 C.3   286  PRO286      0.0892
    135  N        -11.1540   13.9600  -43.0960 N.3   346  CYS346     -0.1235
    136  CA       -11.8030   15.1210  -43.7080 C.3   346  CYS346      0.1677
    137  C        -10.9720   15.8250  -44.7790 C.2   346  CYS346      0.2270
    138  O         -9.9240   16.3870  -44.4820 O.2   346  CYS346     -0.2867
    139  CB       -12.1220   16.1510  -42.6430 C.3   346  CYS346      0.0956
    140  SG       -12.9320   17.6260  -43.3550 S.3   346  CYS346     -0.0801
    141  N        -26.0920   13.3670  -37.4650 N.3   386  LEU386     -0.1231
    142  CA       -24.8270   13.6400  -38.1160 C.3   386  LEU386      0.1693
    143  C        -24.1620   14.8580  -37.5090 C.2   386  LEU386      0.2591
    144  O        -22.9560   14.8570  -37.3050 O.2   386  LEU386     -0.2718
    145  CB       -25.0310   13.8460  -39.6100 C.3   386  LEU386      0.0284
    146  CG       -23.7360   13.9400  -40.4350 C.3   386  LEU386      0.0019
    147  CD1      -23.0730   12.5560  -40.5280 C.3   386  LEU386      0.0001
    148  CD2      -23.9900   14.5270  -41.8330 C.3   386  LEU386      0.0001
    149  N        -24.9490   15.9010  -37.2360 N.am  387  VAL387     -0.1980
    150  CA       -24.3920   17.1730  -36.7380 C.3   387  VAL387      0.1595
    151  C        -24.9480   17.5830  -35.3700 C.2   387  VAL387      0.2287
    152  O        -26.1030   17.3060  -35.0390 O.2   387  VAL387     -0.2864
    153  CB       -24.5550   18.3490  -37.7680 C.3   387  VAL387      0.0276
    154  CG1      -23.8910   18.0010  -39.0990 C.3   387  VAL387      0.0022
    155  CG2      -26.0320   18.6980  -38.0080 C.3   387  VAL387      0.0022
@<TRIPOS>BOND
     1    79    78    2
     2    13    12    1
     3     9    10    1
     4     9    12    1
     5     9     8    1
     6    10    11    2
     7     4     3    2
     8    78    77    1
     9    12    14    1
    10    15    16    1
    11     3     8   am
    12     3     2    1
    13    81    82    1
    14    81    80    1
    15    71    70    2
    16    16    17    1
    17    16    19    1
    18     2     1    1
    19     2     5    1
    20    82    83    1
    21    77    80    1
    22    77    76    1
    23     1     7    1
    24    17    18    2
    25    20    19    1
    26    20    21    1
    27    84    85    1
    28    70    69    1
    29    22    21    1
    30     5     6    1
    31    72    69    1
    32    72    73    1
    33    69    68    1
    34    88    85    1
    35    88    89    1
    36     7     6    1
    37    85    86    1
    38    73    74    2
    39    73    75   am
    40    86    87    2
    41    91    89    1
    42    62    61    2
    43    89    90    1
    44    37    36    1
    45    34    33    2
    46    68    61   am
    47    23    24    1
    48    33    32    1
    49    35    36    1
    50    35    32    1
    51    45    44    1
    52    99    97    1
    53    92    93    1
    54    61    60    1
    55    36    38    1
    56    97    96    1
    57    31    32    1
    58    31    25   am
    59    46    44    1
    60    44    43    1
    61    24    25    1
    62    24    27    1
    63    93    96    1
    64    93    94    1
    65    96    98    1
    66    29    27    1
    67    25    26    2
    68    57    56    2
    69    60    59    1
    70    60    63    1
    71    27    28    1
    72   100    94   am
    73   100   101    1
    74    43    40    1
    75    94    95    2
    76    63    64    1
    77    56    55    1
    78   104   101    1
    79   101   102    1
    80    28    30    1
    81   102   103    2
    82    40    39    1
    83    40    41    1
    84    55    58    1
    85    55    54    1
    86    64    65    1
    87    65    66    1
    88    41    42    2
    89    41    47   am
    90   113   111   ar
    91   137   138    2
    92   137   136    1
    93   110   111    1
    94   110   109    1
    95    47    48    1
    96    52    51    1
    97   105   106    1
    98   111   112   ar
    99    66    67    1
   100   136   135    1
   101   136   139    1
   102   109   106    1
   103   140   139    1
   104    48    51    1
   105    48    49    1
   106   119   118    1
   107   106   107    1
   108    51    53    1
   109   132   133    1
   110   132   129    1
   111   133   134    1
   112   120   118    1
   113   114   107   am
   114   114   115    1
   115   107   108    2
   116   118   115    1
   117   148   146    1
   118    49    50    2
   119   129   130    1
   120   129   128    1
   121   130   131    2
   122   134   128    1
   123   115   116    1
   124   147   146    1
   125   146   145    1
   126   116   117    2
   127   145   142    1
   128   127   125    1
   129   154   153    1
   130   126   125    1
   131   142   143    1
   132   142   141    1
   133   155   153    1
   134   125   122    1
   135   153   150    1
   136   143   144    2
   137   143   149   am
   138   149   150    1
   139   122   121    1
   140   122   123    1
   141   150   151    1
   142   123   124    2
   143   151   152    2
