@<TRIPOS>MOLECULE
tmp/3a58F00.pdb
 173 170 0 0 0
SMALL
GASTEIGER

@<TRIPOS>ATOM
      1  N         62.5070   11.6590    7.9470 N.3    13  GLY13      -0.1210
      2  CA        61.6540   10.4930    7.9090 C.3    13  GLY13       0.1956
      3  C         60.3020   10.7880    8.5180 C.2    13  GLY13       0.2612
      4  O         60.2180   11.4310    9.5630 O.2    13  GLY13      -0.2717
      5  N         59.2470   10.3280    7.8500 N.am   14  ALA14      -0.1965
      6  CA        57.8680   10.5020    8.3050 C.3    14  ALA14       0.1728
      7  C         57.3290   11.9340    8.2870 C.2    14  ALA14       0.2616
      8  O         56.3340   12.2320    8.9510 O.2    14  ALA14      -0.2715
      9  CB        57.7100    9.9110    9.6980 C.3    14  ALA14       0.0334
     10  N         57.9660   12.8210    7.5310 N.am   15  CYS15      -0.1954
     11  CA        57.4820   14.1940    7.4660 C.3    15  CYS15       0.1843
     12  C         56.2840   14.3040    6.5090 C.2    15  CYS15       0.2626
     13  O         55.6710   15.3650    6.3970 O.2    15  CYS15      -0.2714
     14  CB        58.6030   15.1340    7.0200 C.3    15  CYS15       0.0997
     15  SG        59.0370   14.9740    5.2880 S.3    15  CYS15      -0.0797
     16  N         55.9670   13.2090    5.8150 N.am   16  GLY16      -0.1940
     17  CA        54.8320   13.1960    4.9040 C.3    16  GLY16       0.2014
     18  C         55.0920   13.0610    3.4100 C.2    16  GLY16       0.2639
     19  O         54.1540   13.1320    2.6180 O.2    16  GLY16      -0.2714
     20  N         56.3450   12.8490    3.0210 N.am   17  LYS17      -0.1963
     21  CA        56.7140   12.7310    1.6140 C.3    17  LYS17       0.1728
     22  C         55.8840   11.7780    0.7540 C.2    17  LYS17       0.2617
     23  O         55.3300   12.1800   -0.2720 O.2    17  LYS17      -0.2715
     24  CB        58.1850   12.3440    1.5010 C.3    17  LYS17       0.0311
     25  CG        59.1290   13.3930    2.0460 C.3    17  LYS17       0.0038
     26  CD        60.5690   12.9860    1.8270 C.3    17  LYS17       0.0206
     27  CE        60.9040   11.7150    2.5900 C.3    17  LYS17       0.1093
     28  NZ        60.7550   11.9180    4.0570 N.3    17  LYS17      -0.1314
     29  N         55.8060   10.5170    1.1630 N.am   18  THR18      -0.1937
     30  CA        55.0590    9.5180    0.4070 C.3    18  THR18       0.2028
     31  C         53.5650    9.8280    0.3230 C.2    18  THR18       0.2642
     32  O         52.9610    9.7060   -0.7430 O.2    18  THR18      -0.2714
     33  CB        55.2580    8.1040    1.0170 C.3    18  THR18       0.1808
     34  OG1       56.6480    7.7670    0.9860 O.3    18  THR18      -0.2208
     35  CG2       54.4810    7.0560    0.2390 C.3    18  THR18       0.0379
     36  N         52.9600   10.2220    1.4380 N.am   19  CYS19      -0.1967
     37  CA        51.5340   10.5300    1.4250 C.3    19  CYS19       0.1712
     38  C         51.2410   11.6840    0.4780 C.2    19  CYS19       0.2296
     39  O         50.1810   11.7250   -0.1540 O.2    19  CYS19      -0.2864
     40  CB        51.0380   10.8600    2.8330 C.3    19  CYS19       0.0983
     41  SG        50.6410    9.3950    3.8090 S.3    19  CYS19      -0.0798
     42  N         44.1700    8.4310    1.6850 N.3    29  PHE29      -0.1228
     43  CA        45.1920    8.8410    2.6390 C.3    29  PHE29       0.1721
     44  C         45.5710    7.6940    3.5760 C.2    29  PHE29       0.2437
     45  O         44.7440    7.2060    4.3500 O.2    29  PHE29      -0.2733
     46  CB        44.7150   10.0500    3.4450 C.3    29  PHE29       0.0547
     47  CG        45.7180   10.5330    4.4440 C.ar   29  PHE29      -0.0202
     48  CD1       46.9850   10.9260    4.0390 C.ar   29  PHE29      -0.0042
     49  CD2       45.4150   10.5520    5.7990 C.ar   29  PHE29      -0.0042
     50  CE1       47.9400   11.3250    4.9720 C.ar   29  PHE29      -0.0003
     51  CE2       46.3650   10.9500    6.7360 C.ar   29  PHE29      -0.0003
     52  CZ        47.6270   11.3350    6.3190 C.ar   29  PHE29      -0.0000
     53  N         46.8350    7.2400    3.5070 N.am   30  PRO30      -0.2718
     54  CA        47.3350    6.1450    4.3430 C.3    30  PRO30       0.1535
     55  C         47.5520    6.6230    5.7640 C.2    30  PRO30       0.2598
     56  O         48.2380    7.6160    5.9880 O.2    30  PRO30      -0.2715
     57  CB        48.6600    5.7620    3.6800 C.3    30  PRO30       0.0310
     58  CG        48.5760    6.3560    2.3060 C.3    30  PRO30       0.0237
     59  CD        47.8650    7.6530    2.5420 C.3    30  PRO30       0.0939
     60  N         46.9700    5.9050    6.7160 N.am   31  GLU31      -0.1964
     61  CA        47.0790    6.2350    8.1360 C.3    31  GLU31       0.1733
     62  C         48.3270    5.6130    8.7780 C.2    31  GLU31       0.2616
     63  O         49.0750    6.2880    9.4880 O.2    31  GLU31      -0.2715
     64  CB        45.8120    5.7610    8.8610 C.3    31  GLU31       0.0429
     65  CG        45.4130    4.2880    8.5770 C.3    31  GLU31       0.1163
     66  CD        45.0530    4.0010    7.1010 C.2    31  GLU31       0.3649
     67  OE1       44.2000    4.7230    6.5280 O.co2  31  GLU31      -0.2457
     68  OE2       45.6180    3.0420    6.5200 O.co2  31  GLU31      -0.2457
     69  N         48.5480    4.3270    8.5070 N.am   32  VAL32      -0.1963
     70  CA        49.6910    3.5940    9.0470 C.3    32  VAL32       0.1727
     71  C         50.9950    3.9530    8.3400 C.2    32  VAL32       0.2616
     72  O         51.0820    3.9230    7.1120 O.2    32  VAL32      -0.2715
     73  CB        49.4910    2.0630    8.9180 C.3    32  VAL32       0.0290
     74  CG1       50.6440    1.3300    9.6060 C.3    32  VAL32       0.0023
     75  CG2       48.1420    1.6530    9.5060 C.3    32  VAL32       0.0023
     76  N         52.0120    4.2640    9.1320 N.am   33  TYR33      -0.1960
     77  CA        53.3120    4.6380    8.6160 C.3    33  TYR33       0.1771
     78  C         54.1430    3.4740    8.0920 C.2    33  TYR33       0.2619
     79  O         54.3950    2.5070    8.8080 O.2    33  TYR33      -0.2715
     80  CB        54.0900    5.3450    9.7020 C.3    33  TYR33       0.0574
     81  CG        55.5160    5.6070    9.3280 C.ar   33  TYR33      -0.0198
     82  CD1       55.8390    6.1740    8.0960 C.ar   33  TYR33      -0.0009
     83  CD2       56.5420    5.3640   10.2330 C.ar   33  TYR33      -0.0009
     84  CE1       57.1500    6.5030    7.7820 C.ar   33  TYR33       0.0417
     85  CE2       57.8530    5.6910    9.9320 C.ar   33  TYR33       0.0417
     86  CZ        58.1530    6.2630    8.7070 C.ar   33  TYR33       0.1957
     87  OH        59.4520    6.6190    8.4250 O.3    33  TYR33      -0.2866
     88  N         54.5850    3.5870    6.8440 N.am   34  VAL34      -0.1964
     89  CA        55.3980    2.5580    6.2170 C.3    34  VAL34       0.1712
     90  C         56.6040    3.2270    5.5760 C.2    34  VAL34       0.2458
     91  O         56.5190    3.7670    4.4740 O.2    34  VAL34      -0.2730
     92  CB        54.6130    1.8100    5.1340 C.3    34  VAL34       0.0289
     93  CG1       55.4280    0.6350    4.6300 C.3    34  VAL34       0.0023
     94  CG2       53.2710    1.3550    5.6870 C.3    34  VAL34       0.0023
     95  N         57.7450    3.2080    6.2720 N.am   35  PRO35      -0.2716
     96  CA        59.0060    3.8000    5.8210 C.3    35  PRO35       0.1536
     97  C         59.3570    3.4470    4.3870 C.2    35  PRO35       0.2599
     98  O         59.1540    2.3210    3.9440 O.2    35  PRO35      -0.2715
     99  CB        60.0160    3.2430    6.8150 C.3    35  PRO35       0.0310
    100  CG        59.2070    3.1740    8.0690 C.3    35  PRO35       0.0237
    101  CD        57.9000    2.5910    7.5990 C.3    35  PRO35       0.0939
    102  N         59.8860    4.4180    3.6620 N.am   36  THR36      -0.1951
    103  CA        60.2600    4.1910    2.2860 C.3    36  THR36       0.1897
    104  C         61.7740    4.0110    2.1840 C.2    36  THR36       0.2313
    105  O         62.5370    4.6700    2.9000 O.2    36  THR36      -0.2863
    106  CB        59.7600    5.3700    1.4130 C.3    36  THR36       0.1794
    107  OG1       58.3800    5.1480    1.0790 O.3    36  THR36      -0.2208
    108  CG2       60.6030    5.5240    0.1470 C.3    36  THR36       0.0378
    109  N         62.1910    9.0640   -1.9060 N.3    59  THR59      -0.1218
    110  CA        63.4030    8.6380   -1.2060 C.3    59  THR59       0.1862
    111  C         63.1320    8.3040    0.2600 C.2    59  THR59       0.2287
    112  O         62.0000    8.3960    0.7370 O.2    59  THR59      -0.2866
    113  CB        64.5090    9.7280   -1.2510 C.3    59  THR59       0.1770
    114  OG1       64.1890   10.7850   -0.3360 O.3    59  THR59      -0.2211
    115  CG2       64.6250   10.3100   -2.6470 C.3    59  THR59       0.0375
    116  N         63.6040    8.9580    4.2930 N.3    61  GLY61      -0.1210
    117  CA        63.8460   10.0210    5.2500 C.3    61  GLY61       0.1956
    118  C         64.5450    9.4660    6.4800 C.2    61  GLY61       0.2611
    119  O         65.2400   10.1940    7.1950 O.2    61  GLY61      -0.2717
    120  N         64.3610    8.1680    6.7220 N.am   62  GLN62      -0.1979
    121  CA        64.9790    7.4940    7.8600 C.3    62  GLN62       0.1601
    122  C         66.5010    7.4720    7.7600 C.2    62  GLN62       0.2287
    123  O         67.0560    7.1320    6.7200 O.2    62  GLN62      -0.2864
    124  CB        64.4520    6.0680    7.9640 C.3    62  GLN62       0.0394
    125  CG        63.0110    6.0090    8.3820 C.3    62  GLN62       0.0908
    126  CD        62.7900    6.6580    9.7260 C.2    62  GLN62       0.2608
    127  OE1       61.6560    6.9390   10.1090 O.2    62  GLN62      -0.2717
    128  NE2       63.8760    6.8970   10.4570 N.am   62  GLN62      -0.0878
    129  N         54.6520   20.1410    5.2130 N.3   116  CYS116     -0.1221
    130  CA        53.5930   19.1380    5.1870 C.3   116  CYS116      0.1808
    131  C         52.8300   19.0850    6.5000 C.2   116  CYS116      0.2601
    132  O         53.2710   19.6240    7.5150 O.2   116  CYS116     -0.2717
    133  CB        54.1720   17.7510    4.8690 C.3   116  CYS116      0.0970
    134  SG        55.1830   17.6420    3.3430 S.3   116  CYS116     -0.0800
    135  N         51.6720   18.4370    6.4600 N.am  117  LYS117     -0.1979
    136  CA        50.8250   18.2910    7.6310 C.3   117  LYS117      0.1596
    137  C         50.3250   19.6390    8.1640 C.2   117  LYS117      0.2287
    138  O         50.2280   19.8480    9.3790 O.2   117  LYS117     -0.2864
    139  CB        51.5860   17.5460    8.7330 C.3   117  LYS117      0.0298
    140  CG        52.3400   16.3190    8.2500 C.3   117  LYS117      0.0038
    141  CD        52.7580   15.4060    9.3920 C.3   117  LYS117      0.0206
    142  CE        53.4840   14.1770    8.8610 C.3   117  LYS117      0.1093
    143  NZ        53.6270   13.0860    9.8700 N.3   117  LYS117     -0.1314
    144  N         47.5600   20.5690    8.3470 N.3   119  ASP119     -0.1225
    145  CA        46.3500   20.2900    9.1140 C.3   119  ASP119      0.1805
    146  C         46.6290   20.1510   10.6130 C.2   119  ASP119      0.2597
    147  O         45.7040   20.1240   11.4230 O.2   119  ASP119     -0.2718
    148  CB        45.6960   19.0080    8.6110 C.3   119  ASP119      0.1424
    149  CG        46.6250   17.8170    8.7100 C.2   119  ASP119      0.3668
    150  OD1       47.6690   17.8360    8.0310 O.co2 119  ASP119     -0.2456
    151  OD2       46.3220   16.8680    9.4680 O.co2 119  ASP119     -0.2456
    152  N         47.8980   20.0560   10.9860 N.am  120  LEU120     -0.1979
    153  CA        48.2270   19.9260   12.3900 C.3   120  LEU120      0.1596
    154  C         48.6090   21.2530   13.0380 C.2   120  LEU120      0.2287
    155  O         48.7150   21.3300   14.2560 O.2   120  LEU120     -0.2864
    156  CB        49.3600   18.9160   12.5690 C.3   120  LEU120      0.0297
    157  CG        49.0800   17.4830   12.1090 C.3   120  LEU120      0.0022
    158  CD1       50.3400   16.6450   12.2960 C.3   120  LEU120      0.0001
    159  CD2       47.9060   16.8950   12.8860 C.3   120  LEU120      0.0001
    160  N         48.3050   16.3500    3.1100 N.3   160  ALA160     -0.1231
    161  CA        47.9140   15.1770    2.3470 C.3   160  ALA160      0.1694
    162  C         46.6480   14.6030    2.9710 C.2   160  ALA160      0.2591
    163  O         45.8170   13.9910    2.2840 O.2   160  ALA160     -0.2718
    164  CB        49.0160   14.1400    2.3830 C.3   160  ALA160      0.0304
    165  N         46.5030   14.8080    4.2770 N.am  161  LYS161     -0.1980
    166  CA        45.3520   14.2920    4.9900 C.3   161  LYS161      0.1596
    167  C         44.0430   14.8750    4.4770 C.2   161  LYS161      0.2287
    168  O         43.0690   14.1450    4.2800 O.2   161  LYS161     -0.2864
    169  CB        45.4980   14.5720    6.4760 C.3   161  LYS161      0.0298
    170  CG        44.5200   13.8130    7.3270 C.3   161  LYS161      0.0038
    171  CD        45.0350   13.7810    8.7400 C.3   161  LYS161      0.0206
    172  CE        44.3370   12.7420    9.5730 C.3   161  LYS161      0.1093
    173  NZ        45.1230   12.5400   10.8180 N.3   161  LYS161     -0.1314
@<TRIPOS>BOND
     1   115   113    1
     2   109   110    1
     3   113   110    1
     4   113   114    1
     5   110   111    1
     6    32    31    2
     7    23    22    2
     8    39    38    2
     9   108   106    1
    10    35    33    1
    11   111   112    2
    12    31    30    1
    13    31    36   am
    14    30    33    1
    15    30    29    1
    16    38    37    1
    17    22    29   am
    18    22    21    1
    19    34    33    1
    20   107   106    1
    21   106   103    1
    22    37    36    1
    23    37    40    1
    24    24    21    1
    25    24    25    1
    26    21    20    1
    27    42    43    1
    28    26    25    1
    29    26    27    1
    30   104   103    1
    31   104   105    2
    32   163   162    2
    33   103   102    1
    34    58    59    1
    35    58    57    1
    36   161   164    1
    37   161   162    1
    38   161   160    1
    39    59    53    1
    40    27    28    1
    41    19    18    2
    42    43    46    1
    43    43    44    1
    44    40    41    1
    45   162   165   am
    46    20    18   am
    47   134   133    1
    48    18    17    1
    49    46    47    1
    50    53    44   am
    51    53    54    1
    52    44    45    2
    53   102    97   am
    54    57    54    1
    55    98    97    2
    56    48    47   ar
    57    48    50   ar
    58   165   166    1
    59   168   167    2
    60   116   117    1
    61    54    55    1
    62    97    96    1
    63    47    49   ar
    64    91    90    2
    65   167   166    1
    66    93    92    1
    67   133   130    1
    68    17    16    1
    69    50    52   ar
    70   166   169    1
    71    92    94    1
    72    92    89    1
    73   130   129    1
    74   130   131    1
    75   117   118    1
    76    15    14    1
    77    90    89    1
    78    90    95   am
    79    55    56    2
    80    55    60   am
    81    49    51   ar
    82    16    12   am
    83    96    95    1
    84    96    99    1
    85    89    88    1
    86    95   101    1
    87    52    51   ar
    88    13    12    2
    89   135   131   am
    90   135   136    1
    91   169   170    1
    92   118   120   am
    93   118   119    2
    94   131   132    2
    95    12    11    1
    96    68    66   ar
    97    67    66   ar
    98    60    61    1
    99   123   122    2
   100   120   121    1
   101    99   100    1
   102    88    78   am
   103    14    11    1
   104    66    65    1
   105    72    71    2
   106   170   171    1
   107    11    10    1
   108    10     7   am
   109   101   100    1
   110   136   137    1
   111   136   139    1
   112   122   121    1
   113    84    82   ar
   114    84    86   ar
   115     5     6    1
   116     5     3   am
   117   121   124    1
   118     2     1    1
   119     2     3    1
   120   124   125    1
   121   150   149   ar
   122    78    77    1
   123    78    79    2
   124    82    81   ar
   125    61    62    1
   126    61    64    1
   127   137   138    2
   128   140   139    1
   129   140   141    1
   130     7     6    1
   131     7     8    2
   132     6     9    1
   133    71    70    1
   134    71    76   am
   135   144   145    1
   136   125   126    1
   137    87    86    1
   138    69    62   am
   139    69    70    1
   140     3     4    2
   141    65    64    1
   142   148   149    1
   143   148   145    1
   144    77    76    1
   145    77    80    1
   146    86    85   ar
   147   149   151   ar
   148   171   172    1
   149    62    63    2
   150   142   141    1
   151   142   143    1
   152    73    70    1
   153    73    75    1
   154    73    74    1
   155   145   146    1
   156    81    80    1
   157    81    83   ar
   158   172   173    1
   159   126   127    2
   160   126   128   am
   161    85    83   ar
   162   146   152   am
   163   146   147    2
   164   152   153    1
   165   157   158    1
   166   157   156    1
   167   157   159    1
   168   153   156    1
   169   153   154    1
   170   154   155    2
