@<TRIPOS>MOLECULE
tmp/3a5rB00.pdb
 113 107 0 0 0
SMALL
GASTEIGER

@<TRIPOS>ATOM
      1  N         -4.7510  -29.4320   99.2860 N.3   118  LEU118     -0.1245
      2  CA        -4.0440  -28.1710   99.0340 C.3   118  LEU118      0.1561
      3  C         -3.2740  -27.7740  100.2890 C.2   118  LEU118      0.2260
      4  O         -2.1430  -27.3090  100.2160 O.2   118  LEU118     -0.2867
      5  CB        -5.0600  -27.0760   98.6840 C.3   118  LEU118      0.0270
      6  CG        -4.6020  -25.6460   98.3910 C.3   118  LEU118      0.0019
      7  CD1       -3.7830  -25.6130   97.1110 C.3   118  LEU118      0.0001
      8  CD2       -5.8130  -24.7370   98.2840 C.3   118  LEU118      0.0001
      9  N         -1.3520  -28.5360   94.7080 N.3   149  GLY149     -0.1210
     10  CA        -2.0630  -27.5070   93.9860 C.3   149  GLY149      0.1956
     11  C         -2.9440  -28.0400   92.8900 C.2   149  GLY149      0.2612
     12  O         -3.2220  -29.2320   92.8040 O.2   149  GLY149     -0.2717
     13  N         -3.2730  -27.1360   91.9810 N.am  150  CYS150     -0.1970
     14  CA        -4.1780  -27.3970   90.8760 C.3   150  CYS150      0.1712
     15  C         -3.8970  -28.3970   89.7680 C.2   150  CYS150      0.2296
     16  O         -4.7650  -28.6540   88.9260 O.2   150  CYS150     -0.2864
     17  CB        -4.6800  -26.0850   90.2940 C.3   150  CYS150      0.0983
     18  SG        -5.3820  -25.0010   91.5240 S.3   150  CYS150     -0.0798
     19  N         -5.9890  -20.3910  102.9040 N.3   183  CYS183     -0.1235
     20  CA        -5.5950  -19.2590  102.0810 C.3   183  CYS183      0.1677
     21  C         -6.5420  -18.0750  102.0400 C.2   183  CYS183      0.2270
     22  O         -6.2010  -17.0460  101.4460 O.2   183  CYS183     -0.2867
     23  CB        -5.3090  -19.7370  100.6610 C.3   183  CYS183      0.0956
     24  SG        -6.6830  -20.5810   99.8810 S.3   183  CYS183     -0.0801
     25  N        -11.1230  -19.2220   94.0390 N.3   201  LEU201     -0.1245
     26  CA       -11.0830  -20.4760   94.7860 C.3   201  LEU201      0.1561
     27  C        -12.2970  -20.8520   95.6120 C.2   201  LEU201      0.2260
     28  O        -12.8010  -20.0680   96.4190 O.2   201  LEU201     -0.2867
     29  CB        -9.8150  -20.5720   95.6300 C.3   201  LEU201      0.0270
     30  CG        -8.4600  -20.4680   94.9250 C.3   201  LEU201      0.0019
     31  CD1       -7.3900  -20.3710   95.9850 C.3   201  LEU201      0.0001
     32  CD2       -8.2020  -21.6420   94.0000 C.3   201  LEU201      0.0001
     33  N          3.2430  -19.2670   89.2400 N.3   240  ILE240     -0.1231
     34  CA         2.2080  -19.7010   90.1890 C.3   240  ILE240      0.1692
     35  C          2.9470  -20.1740   91.4360 C.2   240  ILE240      0.2592
     36  O          3.6490  -21.1880   91.4010 O.2   240  ILE240     -0.2718
     37  CB         1.3130  -20.8800   89.6670 C.3   240  ILE240      0.0266
     38  CG1        0.6500  -20.5400   88.3310 C.3   240  ILE240      0.0019
     39  CG2        0.2160  -21.2090   90.6990 C.3   240  ILE240      0.0020
     40  CD1       -0.0580  -21.6990   87.6450 C.3   240  ILE240      0.0001
     41  N          2.8260  -19.4110   92.5200 N.am  241  GLU241     -0.1966
     42  CA         3.4900  -19.7580   93.7750 C.3   241  GLU241      0.1733
     43  C          2.5910  -19.6870   94.9980 C.2   241  GLU241      0.2616
     44  O          1.6210  -18.9280   95.0340 O.2   241  GLU241     -0.2715
     45  CB         4.7390  -18.8970   94.0060 C.3   241  GLU241      0.0429
     46  CG         5.9230  -19.2330   93.1000 C.3   241  GLU241      0.1163
     47  CD         7.1840  -18.4430   93.4020 C.2   241  GLU241      0.3649
     48  OE1        7.1170  -17.4110   94.1050 O.co2 241  GLU241     -0.2457
     49  OE2        8.2540  -18.8630   92.9120 O.co2 241  GLU241     -0.2457
     50  N          2.9200  -20.5210   95.9800 N.am  242  GLY242     -0.1955
     51  CA         2.1870  -20.5700   97.2330 C.3   242  GLY242      0.1869
     52  C          3.1700  -20.9220   98.3280 C.2   242  GLY242      0.2309
     53  O          3.9590  -21.8500   98.1750 O.2   242  GLY242     -0.2863
     54  N         -1.4960  -20.0070  103.9140 N.3   249  LEU249     -0.1231
     55  CA        -0.9910  -20.2070  102.5600 C.3   249  LEU249      0.1693
     56  C         -1.1810  -18.9670  101.6880 C.2   249  LEU249      0.2593
     57  O         -2.2980  -18.4810  101.5250 O.2   249  LEU249     -0.2718
     58  CB        -1.6560  -21.4400  101.9360 C.3   249  LEU249      0.0284
     59  CG        -1.1620  -21.9780  100.5920 C.3   249  LEU249      0.0019
     60  CD1        0.2950  -22.3710  100.6300 C.3   249  LEU249      0.0001
     61  CD2       -2.0210  -23.1600  100.1900 C.3   249  LEU249      0.0001
     62  N         -0.0690  -18.4440  101.1700 N.am  250  SER250     -0.1938
     63  CA        -0.0770  -17.2590  100.3100 C.3   250  SER250      0.2055
     64  C         -0.4600  -17.6290   98.8820 C.2   250  SER250      0.2643
     65  O         -0.3290  -18.7830   98.4870 O.2   250  SER250     -0.2714
     66  CB         1.2940  -16.5710  100.3260 C.3   250  SER250      0.2130
     67  OG         2.2860  -17.3620   99.6940 O.3   250  SER250     -0.2179
     68  N         -0.9100  -16.6390   98.1190 N.am  251  PHE251     -0.1959
     69  CA        -1.3280  -16.8330   96.7340 C.3   251  PHE251      0.1771
     70  C         -0.5640  -15.8540   95.8460 C.2   251  PHE251      0.2619
     71  O         -0.6500  -14.6400   96.0370 O.2   251  PHE251     -0.2715
     72  CB        -2.8490  -16.5920   96.6210 C.3   251  PHE251      0.0574
     73  CG        -3.4590  -17.0120   95.2970 C.ar  251  PHE251     -0.0200
     74  CD1       -3.9530  -18.3150   95.1210 C.ar  251  PHE251     -0.0042
     75  CD2       -3.5640  -16.1030   94.2260 C.ar  251  PHE251     -0.0042
     76  CE1       -4.5460  -18.7240   93.8950 C.ar  251  PHE251     -0.0003
     77  CE2       -4.1530  -16.4930   92.9970 C.ar  251  PHE251     -0.0003
     78  CZ        -4.6450  -17.8070   92.8290 C.ar  251  PHE251     -0.0000
     79  N          0.1750  -16.3980   94.8810 N.am  252  HIS252     -0.1973
     80  CA         0.9320  -15.5960   93.9240 C.3   252  HIS252      0.1656
     81  C          0.6050  -16.1260   92.5310 C.2   252  HIS252      0.2291
     82  O          0.7870  -17.3110   92.2510 O.2   252  HIS252     -0.2864
     83  CB         2.4420  -15.6670   94.2030 C.3   252  HIS252      0.0771
     84  CG         3.2740  -14.8180   93.2880 C.ar  252  HIS252      0.0820
     85  ND1        3.7330  -15.2680   92.0670 N.ar  252  HIS252     -0.2267
     86  CD2        3.7140  -13.5430   93.4070 C.ar  252  HIS252      0.1154
     87  CE1        4.4170  -14.3060   91.4740 C.ar  252  HIS252      0.1986
     88  NE2        4.4200  -13.2490   92.2660 N.ar  252  HIS252     -0.2212
     89  N        -13.0680  -22.5950   91.1930 N.3   322  ASN322     -0.1240
     90  CA       -11.8250  -23.3510   91.1070 C.3   322  ASN322      0.1653
     91  C        -11.6320  -24.0820   92.4430 C.2   322  ASN322      0.2266
     92  O        -11.2490  -23.4760   93.4390 O.2   322  ASN322     -0.2867
     93  CB       -10.6740  -22.3660   90.8120 C.3   322  ASN322      0.1155
     94  CG        -9.3100  -23.0380   90.6660 C.2   322  ASN322      0.2627
     95  OD1       -9.0910  -24.1580   91.1260 O.2   322  ASN322     -0.2716
     96  ND2       -8.3700  -22.3190   90.0640 N.am  322  ASN322     -0.0877
     97  N         -9.3820  -26.3360   93.1190 N.3   324  SER324     -0.1217
     98  CA        -8.0340  -26.8990   93.0240 C.3   324  SER324      0.1889
     99  C         -7.9800  -28.3060   92.4060 C.2   324  SER324      0.2288
    100  O         -8.6160  -28.5240   91.3750 O.2   324  SER324     -0.2866
    101  CB        -7.3200  -26.7980   94.3790 C.3   324  SER324      0.2089
    102  OG        -7.2820  -25.4520   94.8280 O.3   324  SER324     -0.2183
    103  N         -0.8700  -26.1410   87.3500 N.3   360  GLY360     -0.1210
    104  CA        -0.5750  -25.6240   88.6730 C.3   360  GLY360      0.1940
    105  C          0.8460  -25.1540   88.8640 C.2   360  GLY360      0.2453
    106  O          1.5460  -24.9370   87.8770 O.2   360  GLY360     -0.2732
    107  N          1.3100  -25.0020   90.1210 N.am  361  PRO361     -0.2728
    108  CA         2.6640  -24.5500   90.4680 C.3   361  PRO361      0.1401
    109  C          3.7980  -25.2230   89.7000 C.2   361  PRO361      0.2269
    110  O          3.8610  -26.4520   89.6250 O.2   361  PRO361     -0.2865
    111  CB         2.7300  -24.8440   91.9600 C.3   361  PRO361      0.0296
    112  CG         1.3500  -24.5850   92.4060 C.3   361  PRO361      0.0237
    113  CD         0.5390  -25.2760   91.3510 C.3   361  PRO361      0.0939
@<TRIPOS>BOND
     1   103   104    1
     2    40    38    1
     3   106   105    2
     4    38    37    1
     5   104   105    1
     6   105   107   am
     7    16    15    2
     8    33    34    1
     9   110   109    2
    10    37    34    1
    11    37    39    1
    12   109   108    1
    13    15    14    1
    14    96    94   am
    15   107   108    1
    16   107   113    1
    17    34    35    1
    18    17    14    1
    19    17    18    1
    20   108   111    1
    21    94    93    1
    22    94    95    2
    23    93    90    1
    24    14    13    1
    25    90    89    1
    26    90    91    1
    27   113   112    1
    28   100    99    2
    29    36    35    2
    30    35    41   am
    31    87    85   ar
    32    87    88   ar
    33   111   112    1
    34    13    11   am
    35    85    84   ar
    36    82    81    2
    37    88    86   ar
    38    99    98    1
    39    91    92    2
    40    41    42    1
    41    81    80    1
    42    12    11    2
    43    78    77   ar
    44    78    76   ar
    45    11    10    1
    46    49    47   ar
    47    77    75   ar
    48    98    97    1
    49    98   101    1
    50    46    47    1
    51    46    45    1
    52    84    86   ar
    53    84    83    1
    54    47    48   ar
    55    42    45    1
    56    42    43    1
    57    76    74   ar
    58    80    83    1
    59    80    79    1
    60    10     9    1
    61    32    30    1
    62    25    26    1
    63    75    73   ar
    64   101   102    1
    65    26    27    1
    66    26    29    1
    67    79    70   am
    68    30    29    1
    69    30    31    1
    70    43    44    2
    71    43    50   am
    72    74    73   ar
    73    73    72    1
    74    27    28    2
    75    70    71    2
    76    70    69    1
    77    50    51    1
    78    72    69    1
    79    69    68    1
    80     7     6    1
    81    51    52    1
    82    68    64   am
    83    53    52    2
    84     8     6    1
    85     6     5    1
    86    65    64    2
    87     5     2    1
    88    64    63    1
    89     2     1    1
    90     2     3    1
    91    67    66    1
    92    24    23    1
    93    61    59    1
    94     4     3    2
    95    63    66    1
    96    63    62    1
    97    59    60    1
    98    59    58    1
    99    23    20    1
   100    62    56   am
   101    22    21    2
   102    57    56    2
   103    56    55    1
   104    58    55    1
   105    21    20    1
   106    20    19    1
   107    55    54    1
