@<TRIPOS>MOLECULE
tmp/3a5rA00.pdb
 121 112 0 0 0
SMALL
GASTEIGER

@<TRIPOS>ATOM
      1  N         10.2790  -34.0120  105.4560 N.3   118  LEU118     -0.1245
      2  CA         9.5750  -33.9300  106.7450 C.3   118  LEU118      0.1561
      3  C          8.8490  -32.5880  106.8350 C.2   118  LEU118      0.2260
      4  O          7.7020  -32.5150  107.2680 O.2   118  LEU118     -0.2867
      5  CB        10.6040  -34.0330  107.8840 C.3   118  LEU118      0.0270
      6  CG        10.2120  -34.0450  109.3640 C.3   118  LEU118      0.0019
      7  CD1        9.5520  -35.3570  109.7180 C.3   118  LEU118      0.0001
      8  CD2       11.4490  -33.8450  110.2220 C.3   118  LEU118      0.0001
      9  N          6.8150  -38.0830  107.5240 N.3   149  GLY149     -0.1210
     10  CA         7.5610  -38.4650  108.6970 C.3   149  GLY149      0.1956
     11  C          8.4600  -39.6560  108.5150 C.2   149  GLY149      0.2612
     12  O          8.7740  -40.0790  107.3990 O.2   149  GLY149     -0.2717
     13  N          8.7950  -40.2380  109.6560 N.am  150  CYS150     -0.1970
     14  CA         9.7050  -41.3640  109.7660 C.3   150  CYS150      0.1712
     15  C          9.4730  -42.7050  109.0730 C.2   150  CYS150      0.2296
     16  O         10.4000  -43.5170  108.9710 O.2   150  CYS150     -0.2864
     17  CB        10.1010  -41.5790  111.2240 C.3   150  CYS150      0.0983
     18  SG        10.7600  -40.1110  112.0420 S.3   150  CYS150     -0.0798
     19  N          7.5980  -33.1940  125.9040 N.3   193  ASP193     -0.1239
     20  CA         7.4690  -33.9650  124.6640 C.3   193  ASP193      0.1674
     21  C          8.3830  -33.5310  123.5210 C.2   193  ASP193      0.2266
     22  O          8.8760  -34.3740  122.7640 O.2   193  ASP193     -0.2867
     23  CB         6.0140  -33.9540  124.1750 C.3   193  ASP193      0.1410
     24  CG         5.0740  -34.7490  125.0740 C.2   193  ASP193      0.3668
     25  OD1        3.8620  -34.4440  125.0660 O.co2 193  ASP193     -0.2456
     26  OD2        5.5290  -35.6820  125.7740 O.co2 193  ASP193     -0.2456
     27  N         12.6500  -34.2440  123.6780 N.3   196  ILE196     -0.1231
     28  CA        13.1370  -35.5800  123.2990 C.3   196  ILE196      0.1692
     29  C         13.6750  -35.5420  121.8580 C.2   196  ILE196      0.2592
     30  O         14.7020  -36.1580  121.5500 O.2   196  ILE196     -0.2718
     31  CB        11.9950  -36.6580  123.3730 C.3   196  ILE196      0.0266
     32  CG1       11.0640  -36.4310  124.5810 C.3   196  ILE196      0.0019
     33  CG2       12.5850  -38.0750  123.3910 C.3   196  ILE196      0.0020
     34  CD1       11.6890  -36.5830  125.9710 C.3   196  ILE196      0.0001
     35  N         12.9930  -34.7700  121.0080 N.am  197  GLY197     -0.1957
     36  CA        13.3690  -34.6190  119.6090 C.3   197  GLY197      0.1869
     37  C         14.6510  -33.8410  119.3750 C.2   197  GLY197      0.2309
     38  O         15.3220  -34.0350  118.3620 O.2   197  GLY197     -0.2863
     39  N         17.4050  -36.6090  119.7840 N.3   200  ILE200     -0.1231
     40  CA        17.4060  -37.7250  118.8360 C.3   200  ILE200      0.1692
     41  C         17.4500  -37.3780  117.3380 C.2   200  ILE200      0.2591
     42  O         18.1390  -38.0550  116.5660 O.2   200  ILE200     -0.2718
     43  CB        16.2200  -38.7290  119.1430 C.3   200  ILE200      0.0266
     44  CG1       16.2280  -39.1260  120.6310 C.3   200  ILE200      0.0019
     45  CG2       16.3740  -40.0310  118.3380 C.3   200  ILE200      0.0020
     46  CD1       15.0240  -39.9460  121.1060 C.3   200  ILE200      0.0001
     47  N         16.7720  -36.3030  116.9440 N.am  201  LEU201     -0.1980
     48  CA        16.7000  -35.9110  115.5340 C.3   201  LEU201      0.1596
     49  C         17.9240  -35.2700  114.8860 C.2   201  LEU201      0.2287
     50  O         18.4810  -34.2990  115.3940 O.2   201  LEU201     -0.2864
     51  CB        15.4630  -35.0460  115.2870 C.3   201  LEU201      0.0297
     52  CG        14.0860  -35.6880  115.4930 C.3   201  LEU201      0.0022
     53  CD1       13.0170  -34.6070  115.4450 C.3   201  LEU201      0.0001
     54  CD2       13.8270  -36.7540  114.4410 C.3   201  LEU201      0.0001
     55  N          2.0810  -41.0240  117.8890 N.3   240  ILE240     -0.1245
     56  CA         3.1420  -40.2250  117.2690 C.3   240  ILE240      0.1561
     57  C          2.4250  -39.1260  116.4880 C.2   240  ILE240      0.2260
     58  O          1.7530  -39.4000  115.4900 O.2   240  ILE240     -0.2867
     59  CB         4.0680  -41.0420  116.2970 C.3   240  ILE240      0.0252
     60  CG1        4.7100  -42.2390  117.0050 C.3   240  ILE240      0.0019
     61  CG2        5.1850  -40.1360  115.7420 C.3   240  ILE240      0.0019
     62  CD1        5.4830  -43.1860  116.0950 C.3   240  ILE240      0.0001
     63  N          6.6010  -32.0840  117.7570 N.3   251  PHE251     -0.1241
     64  CA         6.3950  -33.5210  117.8920 C.3   251  PHE251      0.1605
     65  C          5.9390  -33.9140  119.2900 C.2   251  PHE251      0.2264
     66  O          6.4840  -33.4380  120.2890 O.2   251  PHE251     -0.2867
     67  CB         7.6670  -34.2890  117.5350 C.3   251  PHE251      0.0534
     68  CG         7.8980  -34.4350  116.0580 C.ar  251  PHE251     -0.0203
     69  CD1        7.0200  -35.2040  115.2670 C.ar  251  PHE251     -0.0042
     70  CD2        9.0090  -33.8240  115.4470 C.ar  251  PHE251     -0.0042
     71  CE1        7.2420  -35.3670  113.8750 C.ar  251  PHE251     -0.0003
     72  CE2        9.2520  -33.9750  114.0570 C.ar  251  PHE251     -0.0003
     73  CZ         8.3630  -34.7500  113.2680 C.ar  251  PHE251     -0.0000
     74  N          5.1200  -37.4400  121.3180 N.3   253  LEU253     -0.1245
     75  CA         5.1700  -38.8990  121.3730 C.3   253  LEU253      0.1561
     76  C          4.8050  -39.4690  122.7350 C.2   253  LEU253      0.2260
     77  O          5.2770  -38.9810  123.7670 O.2   253  LEU253     -0.2867
     78  CB         6.5570  -39.4220  120.9710 C.3   253  LEU253      0.0270
     79  CG         6.8900  -39.6810  119.4970 C.3   253  LEU253      0.0019
     80  CD1        7.1280  -38.3830  118.7490 C.3   253  LEU253      0.0001
     81  CD2        8.1180  -40.5680  119.4090 C.3   253  LEU253      0.0001
     82  N         13.9930  -45.0820  115.2750 N.3   291  GLY291     -0.1225
     83  CA        13.2430  -43.9790  115.8610 C.3   291  GLY291      0.1811
     84  C         13.8280  -43.5280  117.1810 C.2   291  GLY291      0.2280
     85  O         13.8110  -42.3440  117.5210 O.2   291  GLY291     -0.2866
     86  N         18.5980  -39.8920  114.3230 N.3   322  ASN322     -0.1240
     87  CA        17.3590  -40.1780  113.6070 C.3   322  ASN322      0.1653
     88  C         17.1680  -39.0870  112.5530 C.2   322  ASN322      0.2266
     89  O         16.8260  -37.9550  112.8810 O.2   322  ASN322     -0.2867
     90  CB        16.1950  -40.2030  114.6120 C.3   322  ASN322      0.1155
     91  CG        14.8450  -40.5340  113.9820 C.2   322  ASN322      0.2627
     92  OD1       14.6500  -40.4350  112.7710 O.2   322  ASN322     -0.2716
     93  ND2       13.8910  -40.8910  114.8250 N.am  322  ASN322     -0.0877
     94  N         14.8980  -39.1260  110.1810 N.3   324  SER324     -0.1217
     95  CA        13.5610  -39.4090  109.6530 C.3   324  SER324      0.1889
     96  C         13.5540  -40.3940  108.4630 C.2   324  SER324      0.2288
     97  O         14.2450  -41.4070  108.5260 O.2   324  SER324     -0.2866
     98  CB        12.8140  -38.0930  109.3760 C.3   324  SER324      0.2089
     99  OG        11.4650  -38.3130  108.9960 O.3   324  SER324     -0.2183
    100  N          8.9080  -46.6290  110.4790 N.3   359  PHE359     -0.1227
    101  CA         7.9700  -46.4120  111.5930 C.3   359  PHE359      0.1736
    102  C          7.6860  -44.9320  111.7130 C.2   359  PHE359      0.2596
    103  O          8.6040  -44.1340  111.6490 O.2   359  PHE359     -0.2718
    104  CB         8.5690  -46.8480  112.9360 C.3   359  PHE359      0.0547
    105  CG         9.1620  -48.2220  112.9440 C.ar  359  PHE359     -0.0202
    106  CD1        8.4160  -49.3400  112.5310 C.ar  359  PHE359     -0.0042
    107  CD2       10.4760  -48.4100  113.4100 C.ar  359  PHE359     -0.0042
    108  CE1        8.9720  -50.6350  112.5860 C.ar  359  PHE359     -0.0003
    109  CE2       11.0500  -49.7000  113.4750 C.ar  359  PHE359     -0.0003
    110  CZ        10.2970  -50.8180  113.0640 C.ar  359  PHE359     -0.0000
    111  N          6.4320  -44.5610  111.9330 N.am  360  GLY360     -0.1943
    112  CA         6.1290  -43.1520  112.0660 C.3   360  GLY360      0.1998
    113  C          4.6930  -42.8670  112.4280 C.2   360  GLY360      0.2480
    114  O          3.9950  -43.7780  112.8690 O.2   360  GLY360     -0.2729
    115  N          4.2110  -41.6230  112.2230 N.am  361  PRO361     -0.2726
    116  CA         2.8480  -41.1650  112.5190 C.3   361  PRO361      0.1402
    117  C          1.7110  -42.0810  112.0770 C.2   361  PRO361      0.2269
    118  O          1.6450  -42.4790  110.9180 O.2   361  PRO361     -0.2865
    119  CB         2.8070  -39.8140  111.8270 C.3   361  PRO361      0.0296
    120  CG         4.1690  -39.3070  112.0410 C.3   361  PRO361      0.0237
    121  CD         5.0090  -40.5000  111.6900 C.3   361  PRO361      0.0939
@<TRIPOS>BOND
     1     1     2    1
     2     2     3    1
     3     2     5    1
     4     3     4    2
     5    12    11    2
     6     9    10    1
     7     5     6    1
     8    96    97    2
     9    96    95    1
    10    11    10    1
    11    11    13   am
    12    16    15    2
    13    99    98    1
    14    15    14    1
    15     6     7    1
    16     6     8    1
    17    98    95    1
    18    95    94    1
    19    13    14    1
    20    14    17    1
    21   100   101    1
    22   118   117    2
    23    17    18    1
    24   101   102    1
    25   101   104    1
    26   103   102    2
    27   121   120    1
    28   121   115    1
    29   102   111   am
    30   119   120    1
    31   119   116    1
    32   111   112    1
    33   112   113    1
    34   117   116    1
    35   115   113   am
    36   115   116    1
    37   113   114    2
    38   106   108   ar
    39   106   105   ar
    40    88    89    2
    41    88    87    1
    42   108   110   ar
    43    92    91    2
    44   104   105    1
    45   105   107   ar
    46   110   109   ar
    47    73    71   ar
    48    73    72   ar
    49   107   109   ar
    50    87    86    1
    51    87    90    1
    52    71    69   ar
    53    91    90    1
    54    91    93   am
    55    72    70   ar
    56    54    52    1
    57    49    50    2
    58    49    48    1
    59    69    68   ar
    60    82    83    1
    61    51    52    1
    62    51    48    1
    63    53    52    1
    64    70    68   ar
    65    58    57    2
    66    48    47    1
    67    61    59    1
    68    83    84    1
    69    68    67    1
    70    62    60    1
    71    59    60    1
    72    59    56    1
    73    57    56    1
    74    42    41    2
    75    47    41   am
    76    84    85    2
    77    56    55    1
    78    41    40    1
    79    67    64    1
    80    63    64    1
    81    64    65    1
    82    45    43    1
    83    38    37    2
    84    80    79    1
    85    40    43    1
    86    40    39    1
    87    43    44    1
    88    65    66    2
    89    37    36    1
    90    81    79    1
    91    79    78    1
    92    36    35    1
    93    44    46    1
    94    78    75    1
    95    35    29   am
    96    74    75    1
    97    75    76    1
    98    30    29    2
    99    29    28    1
   100    76    77    2
   101    22    21    2
   102    28    31    1
   103    28    27    1
   104    31    33    1
   105    31    32    1
   106    21    20    1
   107    23    20    1
   108    23    24    1
   109    32    34    1
   110    20    19    1
   111    25    24   ar
   112    24    26   ar
