@<TRIPOS>MOLECULE
tmp/3a5vA02.pdb
 93 84 0 0 0
SMALL
GASTEIGER

@<TRIPOS>ATOM
      1  N         39.6550   13.3820   44.0900 N.3   289  GLU289     -0.1245
      2  CA        39.5100   11.9850   44.5090 C.3   289  GLU289      0.1567
      3  C         38.0480   11.5270   44.3870 C.2   289  GLU289      0.2260
      4  O         37.7880   10.3860   44.0370 O.2   289  GLU289     -0.2867
      5  CB        40.0300   11.7900   45.9420 C.3   289  GLU289      0.0388
      6  CG        41.5230   12.1780   46.1040 C.3   289  GLU289      0.1160
      7  CD        42.1490   11.6600   47.3930 C.2   289  GLU289      0.3649
      8  OE1       41.6650   10.6580   47.9590 O.co2 289  GLU289     -0.2457
      9  OE2       43.1430   12.2620   47.8510 O.co2 289  GLU289     -0.2457
     10  N         37.3450   11.2380   40.6520 N.3   292  ALA292     -0.1231
     11  CA        37.9300    9.9700   40.2000 C.3   292  ALA292      0.1694
     12  C         37.0300    8.7520   40.4480 C.2   292  ALA292      0.2591
     13  O         37.1430    7.7370   39.7580 O.2   292  ALA292     -0.2718
     14  CB        39.3090    9.7670   40.8570 C.3   292  ALA292      0.0304
     15  N         36.1490    8.8330   41.4490 N.am  293  VAL293     -0.1980
     16  CA        35.1730    7.7440   41.6520 C.3   293  VAL293      0.1595
     17  C         34.1520    7.7280   40.5080 C.2   293  VAL293      0.2287
     18  O         33.8660    6.6730   39.9350 O.2   293  VAL293     -0.2864
     19  CB        34.4430    7.8630   43.0330 C.3   293  VAL293      0.0276
     20  CG1       33.2080    6.9240   43.0890 C.3   293  VAL293      0.0022
     21  CG2       35.4190    7.5710   44.1750 C.3   293  VAL293      0.0022
     22  N         35.7830    6.5790   37.3090 N.3   296  ASP296     -0.1239
     23  CA        36.5060    5.3000   37.4410 C.3   296  ASP296      0.1674
     24  C         36.4030    4.3700   36.2220 C.2   296  ASP296      0.2266
     25  O         35.3170    4.1680   35.6650 O.2   296  ASP296     -0.2867
     26  CB        36.0520    4.5470   38.7000 C.3   296  ASP296      0.1410
     27  CG        36.7860    3.2360   38.8760 C.2   296  ASP296      0.3668
     28  OD1       37.9440    3.2590   39.3430 O.co2 296  ASP296     -0.2456
     29  OD2       36.2150    2.1850   38.5130 O.co2 296  ASP296     -0.2456
     30  N         35.7810   -0.3850   42.1860 N.3   318  LEU318     -0.1231
     31  CA        36.6090    0.5860   41.4830 C.3   318  LEU318      0.1693
     32  C         37.7900   -0.1690   40.8490 C.2   318  LEU318      0.2592
     33  O         37.9230   -1.3870   41.0320 O.2   318  LEU318     -0.2718
     34  CB        37.1040    1.6620   42.4540 C.3   318  LEU318      0.0284
     35  CG        36.0660    2.5220   43.1980 C.3   318  LEU318      0.0019
     36  CD1       36.7640    3.4050   44.2380 C.3   318  LEU318      0.0001
     37  CD2       35.2260    3.3600   42.2300 C.3   318  LEU318      0.0001
     38  N         38.6310    0.5420   40.1030 N.am  319  ALA319     -0.1966
     39  CA        39.7220   -0.0900   39.3400 C.3   319  ALA319      0.1728
     40  C         40.7440   -0.7520   40.2850 C.2   319  ALA319      0.2616
     41  O         40.8310   -0.3960   41.4670 O.2   319  ALA319     -0.2715
     42  CB        40.4130    0.9600   38.4500 C.3   319  ALA319      0.0334
     43  N         41.4840   -1.7370   39.7760 N.am  320  ASN320     -0.1972
     44  CA        42.6060   -2.3390   40.5300 C.3   320  ASN320      0.1688
     45  C         42.2020   -2.9610   41.8620 C.2   320  ASN320      0.2292
     46  O         42.9020   -2.8170   42.8890 O.2   320  ASN320     -0.2864
     47  CB        43.7190   -1.3100   40.7370 C.3   320  ASN320      0.1181
     48  CG        44.1120   -0.6240   39.4510 C.2   320  ASN320      0.2629
     49  OD1       44.1960    0.6080   39.3880 O.2   320  ASN320     -0.2716
     50  ND2       44.3130   -1.4090   38.3990 N.am  320  ASN320     -0.0877
     51  N         39.9460   -2.2440   43.9930 N.3   322  THR322     -0.1218
     52  CA        39.5810   -1.3840   45.1180 C.3   322  THR322      0.1862
     53  C         38.0470   -1.2650   45.1890 C.2   322  THR322      0.2287
     54  O         37.3490   -1.7460   44.2900 O.2   322  THR322     -0.2866
     55  CB        40.2810   -0.0060   45.0630 C.3   322  THR322      0.1770
     56  OG1       39.8820    0.6880   43.8750 O.3   322  THR322     -0.2211
     57  CG2       41.8410   -0.1740   45.0750 C.3   322  THR322      0.0375
     58  N         40.6320    4.7650   53.0510 N.3   361  ARG361     -0.1245
     59  CA        40.8990    6.1980   52.8770 C.3   361  ARG361      0.1563
     60  C         39.5790    6.9740   52.8620 C.2   361  ARG361      0.2260
     61  O         38.5920    6.5250   52.2670 O.2   361  ARG361     -0.2867
     62  CB        41.6420    6.4190   51.5610 C.3   361  ARG361      0.0307
     63  CG        41.9700    7.8720   51.2440 C.3   361  ARG361      0.0489
     64  CD        42.8130    7.9640   49.9700 C.3   361  ARG361      0.2205
     65  NE        43.2460    9.3410   49.6870 N.pl3 361  ARG361     -0.0865
     66  CZ        44.3080    9.9300   50.2390 C.cat 361  ARG361      0.5346
     67  NH1       45.0470    9.2830   51.1460 N.pl3 361  ARG361      0.1354
     68  NH2       44.6160   11.1840   49.9070 N.pl3 361  ARG361      0.1354
     69  N         37.8140    9.9130   51.3050 N.3   363  LEU363     -0.1245
     70  CA        38.0240   10.6640   50.0580 C.3   363  LEU363      0.1561
     71  C         37.7120   12.1560   50.1450 C.2   363  LEU363      0.2260
     72  O         38.3180   12.9700   49.4250 O.2   363  LEU363     -0.2867
     73  CB        37.2470   10.0230   48.8990 C.3   363  LEU363      0.0270
     74  CG        37.6360    8.5790   48.5530 C.3   363  LEU363      0.0019
     75  CD1       36.9970    8.2130   47.2260 C.3   363  LEU363      0.0001
     76  CD2       39.1810    8.3740   48.4880 C.3   363  LEU363      0.0001
     77  N         37.3010    4.8080   50.3760 N.3   389  LYS389     -0.1245
     78  CA        37.9170    3.8920   49.4250 C.3   389  LYS389      0.1561
     79  C         38.7290    2.8240   50.1540 C.2   389  LYS389      0.2260
     80  O         39.6310    3.1390   50.9390 O.2   389  LYS389     -0.2867
     81  CB        38.8090    4.6490   48.4290 C.3   389  LYS389      0.0271
     82  CG        39.4160    3.7370   47.3420 C.3   389  LYS389      0.0035
     83  CD        40.3490    4.5350   46.4430 C.3   389  LYS389      0.0206
     84  CE        41.0270    3.6500   45.3970 C.3   389  LYS389      0.1093
     85  NZ        41.8930    4.4940   44.5400 N.3   389  LYS389     -0.1314
     86  N         41.4620    0.0480   49.8630 N.3   391  MET391     -0.1245
     87  CA        42.6190   -0.0390   48.9640 C.3   391  MET391      0.1570
     88  C         42.9020   -1.4640   48.4910 C.2   391  MET391      0.2261
     89  O         43.7740   -1.7010   47.6600 O.2   391  MET391     -0.2867
     90  CB        43.8580    0.6020   49.6130 C.3   391  MET391      0.0387
     91  CG        43.6590    2.0580   49.9940 C.3   391  MET391      0.0595
     92  SD        43.2870    3.1590   48.5980 S.3   391  MET391     -0.1393
     93  CE        44.8980    3.2240   47.8320 C.3   391  MET391      0.0692
@<TRIPOS>BOND
     1    25    24    2
     2    24    23    1
     3    22    23    1
     4    23    26    1
     5    50    48   am
     6    42    39    1
     7    29    27   ar
     8    26    27    1
     9    27    28   ar
    10    39    38    1
    11    39    40    1
    12    49    48    2
    13    48    47    1
    14    13    12    2
    15    43    40   am
    16    43    44    1
    17    18    17    2
    18    38    32   am
    19    11    12    1
    20    11    10    1
    21    11    14    1
    22    40    41    2
    23    12    15   am
    24    17    16    1
    25    44    47    1
    26    44    45    1
    27    32    33    2
    28    32    31    1
    29    15    16    1
    30    31    30    1
    31    31    34    1
    32    16    19    1
    33    45    46    2
    34    37    35    1
    35    34    35    1
    36    19    20    1
    37    19    21    1
    38    35    36    1
    39    56    55    1
    40    51    52    1
    41     4     3    2
    42     1     2    1
    43    54    53    2
    44     3     2    1
    45     2     5    1
    46    85    84    1
    47    55    57    1
    48    55    52    1
    49    52    53    1
    50    84    83    1
    51     5     6    1
    52     6     7    1
    53    83    82    1
    54    75    74    1
    55    82    81    1
    56     7     9   ar
    57     7     8   ar
    58    89    88    2
    59    93    92    1
    60    81    78    1
    61    76    74    1
    62    88    87    1
    63    74    73    1
    64    92    91    1
    65    73    70    1
    66    87    90    1
    67    87    86    1
    68    78    79    1
    69    78    77    1
    70    72    71    2
    71    90    91    1
    72    65    64    1
    73    65    66    2
    74    68    66    1
    75    64    63    1
    76    70    71    1
    77    70    69    1
    78    79    80    2
    79    66    67    1
    80    63    62    1
    81    62    59    1
    82    61    60    2
    83    60    59    1
    84    59    58    1
