@<TRIPOS>MOLECULE
tmp/3a5vA04.pdb
 102 95 0 0 0
SMALL
GASTEIGER

@<TRIPOS>ATOM
      1  N         20.5740   26.9390   32.8260 N.3    16  TRP16      -0.1241
      2  CA        19.1930   27.1520   33.3100 C.3    16  TRP16       0.1605
      3  C         19.0660   27.7460   34.7160 C.2    16  TRP16       0.2264
      4  O         18.4360   28.7950   34.8850 O.2    16  TRP16      -0.2867
      5  CB        18.2830   25.9050   33.1840 C.3    16  TRP16       0.0550
      6  CG        16.8720   26.3130   33.5590 C.ar   16  TRP16       0.0003
      7  CD1       16.2280   26.0950   34.7560 C.ar   16  TRP16       0.0946
      8  CD2       15.9910   27.1320   32.7740 C.ar   16  TRP16       0.0152
      9  NE1       14.9760   26.6880   34.7330 N.ar   16  TRP16      -0.2442
     10  CE2       14.8100   27.3290   33.5320 C.ar   16  TRP16       0.0810
     11  CE3       16.0770   27.6940   31.4830 C.ar   16  TRP16       0.0012
     12  CZ2       13.7240   28.0730   33.0480 C.ar   16  TRP16       0.0191
     13  CZ3       14.9970   28.4300   31.0000 C.ar   16  TRP16       0.0001
     14  CH2       13.8390   28.6180   31.7860 C.ar   16  TRP16       0.0015
     15  N         20.7490   25.9120   27.8310 N.3    51  ASP51      -0.1225
     16  CA        19.4520   25.2790   28.1130 C.3    51  ASP51       0.1805
     17  C         18.3160   25.9830   27.3350 C.2    51  ASP51       0.2597
     18  O         18.5680   26.5780   26.2860 O.2    51  ASP51      -0.2718
     19  CB        19.1830   25.2280   29.6310 C.3    51  ASP51       0.1424
     20  CG        18.2340   24.1000   30.0100 C.2    51  ASP51       0.3668
     21  OD1       18.6730   22.9270   29.9810 O.co2  51  ASP51      -0.2456
     22  OD2       17.0470   24.3940   30.3150 O.co2  51  ASP51      -0.2456
     23  N         17.0800   25.9320   27.8440 N.am   52  ASP52      -0.1974
     24  CA        15.9050   26.4570   27.1380 C.3    52  ASP52       0.1709
     25  C         16.0020   27.9920   26.9760 C.2    52  ASP52       0.2293
     26  O         16.7430   28.6540   27.7110 O.2    52  ASP52      -0.2864
     27  CB        14.6520   26.1160   27.9680 C.3    52  ASP52       0.1436
     28  CG        13.3520   26.0010   27.1370 C.2    52  ASP52       0.3671
     29  OD1       13.3550   26.2470   25.8990 O.co2  52  ASP52      -0.2456
     30  OD2       12.3120   25.6390   27.7640 O.co2  52  ASP52      -0.2456
     31  N         19.8570   22.6720   23.8570 N.3    93  TYR93      -0.1241
     32  CA        18.6490   22.0530   24.4000 C.3    93  TYR93       0.1605
     33  C         17.5170   22.1290   23.3770 C.2    93  TYR93       0.2264
     34  O         17.3420   23.1510   22.6920 O.2    93  TYR93      -0.2867
     35  CB        18.2450   22.7540   25.7050 C.3    93  TYR93       0.0534
     36  CG        16.8160   22.5040   26.1640 C.ar   93  TYR93      -0.0201
     37  CD1       15.7500   23.2310   25.6260 C.ar   93  TYR93      -0.0009
     38  CD2       16.5350   21.5360   27.1490 C.ar   93  TYR93      -0.0009
     39  CE1       14.4320   22.9840   26.0270 C.ar   93  TYR93       0.0417
     40  CE2       15.2360   21.3060   27.5730 C.ar   93  TYR93       0.0417
     41  CZ        14.1850   22.0310   27.0040 C.ar   93  TYR93       0.1957
     42  OH        12.8860   21.8130   27.4020 O.3    93  TYR93      -0.2866
     43  N          9.7160   22.8850   27.1700 N.3   101  CYS101     -0.1221
     44  CA         9.0320   23.0690   28.4450 C.3   101  CYS101      0.1808
     45  C          8.7510   24.5450   28.7210 C.2   101  CYS101      0.2601
     46  O          7.7360   24.8790   29.3510 O.2   101  CYS101     -0.2717
     47  CB         9.7890   22.3760   29.6000 C.3   101  CYS101      0.0970
     48  SG         9.9000   20.5430   29.3740 S.3   101  CYS101     -0.0800
     49  N          9.6050   25.4240   28.1900 N.am  102  GLY102     -0.1957
     50  CA         9.4140   26.8710   28.3130 C.3   102  GLY102      0.1869
     51  C          8.4680   27.4720   27.2840 C.2   102  GLY102      0.2309
     52  O          8.2560   28.6920   27.2730 O.2   102  GLY102     -0.2863
     53  N         20.8290   18.0180   24.9440 N.3   127  LYS127     -0.1245
     54  CA        19.8400   17.6460   25.9670 C.3   127  LYS127      0.1561
     55  C         18.4340   17.7010   25.3400 C.2   127  LYS127      0.2260
     56  O         17.9980   18.7430   24.8440 O.2   127  LYS127     -0.2867
     57  CB        19.9490   18.5730   27.1920 C.3   127  LYS127      0.0271
     58  CG        18.7980   18.4410   28.2240 C.3   127  LYS127      0.0035
     59  CD        18.8970   19.5190   29.3220 C.3   127  LYS127      0.0206
     60  CE        17.5950   19.5700   30.1740 C.3   127  LYS127      0.1093
     61  NZ        17.6570   20.6840   31.1730 N.3   127  LYS127     -0.1314
     62  N         14.4440   17.0630   25.7160 N.3   129  ASP129     -0.1239
     63  CA        13.3620   17.0350   26.7020 C.3   129  ASP129      0.1674
     64  C         12.1220   16.2390   26.2060 C.2   129  ASP129      0.2266
     65  O         12.1220   15.6670   25.1180 O.2   129  ASP129     -0.2867
     66  CB        12.9750   18.4860   27.0500 C.3   129  ASP129      0.1410
     67  CG        12.6140   18.6830   28.5150 C.2   129  ASP129      0.3668
     68  OD1       12.0990   17.7480   29.1670 O.co2 129  ASP129     -0.2456
     69  OD2       12.8200   19.8170   29.0050 O.co2 129  ASP129     -0.2456
     70  N         16.2000   13.4890   28.1020 N.3   166  CYS166     -0.1235
     71  CA        15.5310   14.1300   29.2210 C.3   166  CYS166      0.1677
     72  C         14.0160   13.8140   29.1810 C.2   166  CYS166      0.2270
     73  O         13.1920   14.7000   28.9450 O.2   166  CYS166     -0.2867
     74  CB        15.8140   15.6450   29.2080 C.3   166  CYS166      0.0956
     75  SG        15.1330   16.5620   30.6420 S.3   166  CYS166     -0.0801
     76  N         17.7910   10.8750   31.8460 N.3   185  ARG185     -0.1245
     77  CA        17.1280   11.2690   33.0860 C.3   185  ARG185      0.1563
     78  C         16.2140   10.1500   33.5700 C.2   185  ARG185      0.2260
     79  O         15.4630    9.5390   32.7800 O.2   185  ARG185     -0.2867
     80  CB        16.3600   12.5810   32.8830 C.3   185  ARG185      0.0307
     81  CG        17.3230   13.8160   32.7760 C.3   185  ARG185      0.0489
     82  CD        17.7320   14.3500   34.2060 C.3   185  ARG185      0.2205
     83  NE        16.4930   14.5810   34.9360 N.pl3 185  ARG185     -0.0865
     84  CZ        15.6780   15.6160   34.7350 C.cat 185  ARG185      0.5346
     85  NH1       16.0230   16.6090   33.9110 N.pl3 185  ARG185      0.1354
     86  NH2       14.5110   15.6560   35.3740 N.pl3 185  ARG185      0.1354
     87  N         12.5100   16.4770   37.8980 N.3   189  ASP189     -0.1239
     88  CA        13.6500   17.3670   38.1590 C.3   189  ASP189      0.1674
     89  C         13.9440   17.4700   39.6500 C.2   189  ASP189      0.2266
     90  O         13.0330   17.5670   40.4720 O.2   189  ASP189     -0.2867
     91  CB        13.3990   18.7980   37.6470 C.3   189  ASP189      0.1410
     92  CG        12.9810   18.8670   36.1880 C.2   189  ASP189      0.3668
     93  OD1       12.9600   17.8470   35.4530 O.co2 189  ASP189     -0.2456
     94  OD2       12.6550   19.9960   35.7710 O.co2 189  ASP189     -0.2456
     95  N         20.8060   17.7390   37.4560 N.3   241  MET241     -0.1245
     96  CA        21.9320   18.6350   37.7140 C.3   241  MET241      0.1570
     97  C         22.2480   18.7910   39.1930 C.2   241  MET241      0.2261
     98  O         21.3880   18.5710   40.0530 O.2   241  MET241     -0.2867
     99  CB        21.6250   20.0170   37.1250 C.3   241  MET241      0.0387
    100  CG        21.4300   19.9670   35.6400 C.3   241  MET241      0.0595
    101  SD        21.0720   21.5720   34.9160 S.3   241  MET241     -0.1393
    102  CE        19.4050   21.9000   35.5530 C.3   241  MET241      0.0692
@<TRIPOS>BOND
     1    34    33    2
     2    33    32    1
     3    31    32    1
     4    32    35    1
     5    56    55    2
     6    53    54    1
     7    65    64    2
     8    55    54    1
     9    37    39   ar
    10    37    36   ar
    11    35    36    1
    12    62    63    1
    13    29    28   ar
    14    54    57    1
    15    39    41   ar
    16    36    38   ar
    17    64    63    1
    18    18    17    2
    19    63    66    1
    20    25    24    1
    21    25    26    2
    22    41    42    1
    23    41    40   ar
    24    66    67    1
    25    28    30   ar
    26    28    27    1
    27    24    23    1
    28    24    27    1
    29    38    40   ar
    30    43    44    1
    31    57    58    1
    32    52    51    2
    33    51    50    1
    34    17    23   am
    35    17    16    1
    36    15    16    1
    37    70    71    1
    38    16    19    1
    39    49    50    1
    40    49    45   am
    41    58    59    1
    42    44    45    1
    43    44    47    1
    44    67    69   ar
    45    67    68   ar
    46    45    46    2
    47    73    72    2
    48    72    71    1
    49    74    71    1
    50    74    75    1
    51    59    60    1
    52    48    47    1
    53    19    20    1
    54    21    20   ar
    55    20    22   ar
    56    60    61    1
    57    13    11   ar
    58    13    14   ar
    59    11     8   ar
    60    14    12   ar
    61    76    77    1
    62     8    10   ar
    63     8     6   ar
    64    81    80    1
    65    81    82    1
    66    79    78    2
    67     1     2    1
    68    80    77    1
    69    12    10   ar
    70    77    78    1
    71     5     2    1
    72     5     6    1
    73     2     3    1
    74    10     9   ar
    75     6     7   ar
    76    85    84    1
    77    82    83    1
    78     3     4    2
    79     9     7   ar
    80    84    83    2
    81    84    86    1
    82   101   102    1
    83   101   100    1
    84    93    92   ar
    85   100    99    1
    86    94    92   ar
    87    92    91    1
    88    99    96    1
    89    95    96    1
    90    91    88    1
    91    96    97    1
    92    87    88    1
    93    88    89    1
    94    97    98    2
    95    89    90    2
