@<TRIPOS>MOLECULE
tmp/3a5vA00.pdb
 72 68 0 0 0
SMALL
GASTEIGER

@<TRIPOS>ATOM
      1  N         27.1020    3.1560   21.5350 N.3     2  ASN2       -0.1225
      2  CA        28.4700    2.8810   21.0540 C.3     2  ASN2        0.1785
      3  C         28.8490    3.9240   20.0050 C.2     2  ASN2        0.2597
      4  O         28.9980    3.6050   18.8290 O.2     2  ASN2       -0.2718
      5  CB        28.5360    1.4590   20.4620 C.3     2  ASN2        0.1169
      6  CG        29.9800    0.9800   20.1620 C.2     2  ASN2        0.2627
      7  OD1       30.9700    1.5340   20.6610 O.2     2  ASN2       -0.2716
      8  ND2       30.0840   -0.0580   19.3370 N.am    2  ASN2       -0.0877
      9  N         28.9680    5.1840   20.4290 N.am    3  ASN3       -0.1960
     10  CA        29.3290    6.2810   19.5260 C.3     3  ASN3        0.1819
     11  C         30.6380    6.9700   19.9440 C.2     3  ASN3        0.2621
     12  O         30.9250    8.0790   19.5190 O.2     3  ASN3       -0.2715
     13  CB        28.1920    7.3130   19.4330 C.3     3  ASN3        0.1195
     14  CG        27.9110    7.9960   20.7740 C.2     3  ASN3        0.2630
     15  OD1       28.4490    7.5930   21.8030 O.2     3  ASN3       -0.2716
     16  ND2       27.0690    9.0250   20.7630 N.am    3  ASN3       -0.0877
     17  N         31.4170    6.3140   20.7920 N.am    4  GLY4       -0.1954
     18  CA        32.6870    6.8860   21.2420 C.3     4  GLY4        0.1869
     19  C         32.5890    7.9660   22.3000 C.2     4  GLY4        0.2309
     20  O         33.6080    8.5250   22.7080 O.2     4  GLY4       -0.2863
     21  N         32.2500    7.7380   27.5780 N.3     7  ILE7       -0.1245
     22  CA        32.9120    6.4890   27.9990 C.3     7  ILE7        0.1561
     23  C         32.9010    6.4240   29.5350 C.2     7  ILE7        0.2260
     24  O         32.7370    5.3550   30.1310 O.2     7  ILE7       -0.2867
     25  CB        34.3750    6.4230   27.4730 C.3     7  ILE7        0.0252
     26  CG1       34.4350    6.5710   25.9460 C.3     7  ILE7        0.0019
     27  CG2       35.0810    5.1530   27.9420 C.3     7  ILE7        0.0019
     28  CD1       33.6330    5.5610   25.1950 C.3     7  ILE7        0.0001
     29  N         23.1240   11.1530   14.3640 N.3   155  ASN155     -0.1240
     30  CA        24.0880   10.2680   13.7430 C.3   155  ASN155      0.1653
     31  C         24.3970   10.6220   12.2700 C.2   155  ASN155      0.2266
     32  O         25.5640   10.6370   11.8490 O.2   155  ASN155     -0.2867
     33  CB        23.6030    8.8130   13.8480 C.3   155  ASN155      0.1155
     34  CG        24.6750    7.8250   13.4490 C.2   155  ASN155      0.2627
     35  OD1       24.7180    7.3950   12.2950 O.2   155  ASN155     -0.2716
     36  ND2       25.5730    7.4990   14.3910 N.am  155  ASN155     -0.0877
     37  N         27.0390   13.0820   10.7120 N.3   158  GLY158     -0.1210
     38  CA        28.4460   12.7340   10.7660 C.3   158  GLY158      0.1956
     39  C         29.2170   13.4050   11.8950 C.2   158  GLY158      0.2612
     40  O         30.3800   13.0890   12.1070 O.2   158  GLY158     -0.2717
     41  N         28.5860   14.3260   12.6290 N.am  159  ARG159     -0.1966
     42  CA        29.2650   14.9760   13.7420 C.3   159  ARG159      0.1714
     43  C         28.9500   14.2450   15.0590 C.2   159  ARG159      0.2458
     44  O         27.7690   14.0880   15.4110 O.2   159  ARG159     -0.2730
     45  CB        28.8820   16.4610   13.8580 C.3   159  ARG159      0.0347
     46  CG        29.6380   17.1600   14.9840 C.3   159  ARG159      0.0492
     47  CD        29.3110   18.6540   15.1520 C.3   159  ARG159      0.2205
     48  NE        30.1960   19.2250   16.1700 N.pl3 159  ARG159     -0.0865
     49  CZ        31.4270   19.6960   15.9300 C.cat 159  ARG159      0.5346
     50  NH1       31.9180   19.6720   14.7020 N.pl3 159  ARG159      0.1354
     51  NH2       32.1770   20.1770   16.9130 N.pl3 159  ARG159      0.1354
     52  N         29.9930   13.8180   15.7940 N.am  160  PRO160     -0.2716
     53  CA        29.7450   13.2280   17.1250 C.3   160  PRO160      0.1536
     54  C         29.0660   14.2300   18.0740 C.2   160  PRO160      0.2598
     55  O         29.6110   15.3100   18.3490 O.2   160  PRO160     -0.2715
     56  CB        31.1480   12.8880   17.6300 C.3   160  PRO160      0.0310
     57  CG        31.9950   12.7600   16.3380 C.3   160  PRO160      0.0237
     58  CD        31.4310   13.8490   15.4650 C.3   160  PRO160      0.0939
     59  N         27.8690   13.8780   18.5450 N.am  161  MET161     -0.1978
     60  CA        27.1360   14.7190   19.4920 C.3   161  MET161      0.1605
     61  C         26.6010   13.8430   20.6300 C.2   161  MET161      0.2287
     62  O         25.8640   12.8790   20.3880 O.2   161  MET161     -0.2864
     63  CB        25.9910   15.4650   18.7840 C.3   161  MET161      0.0413
     64  CG        26.4810   16.4870   17.7490 C.3   161  MET161      0.0598
     65  SD        25.1990   17.4390   16.9050 S.3   161  MET161     -0.1393
     66  CE        24.9200   16.3330   15.5550 C.3   161  MET161      0.0692
     67  N         29.2940    1.8070   30.5140 N.3   233  SER233     -0.1217
     68  CA        30.1100    2.7770   29.7800 C.3   233  SER233      0.1889
     69  C         29.3360    3.2020   28.5320 C.2   233  SER233      0.2288
     70  O         28.8050    2.3420   27.8010 O.2   233  SER233     -0.2866
     71  CB        31.4660    2.1720   29.3710 C.3   233  SER233      0.2089
     72  OG        32.2700    3.1430   28.7080 O.3   233  SER233     -0.2183
@<TRIPOS>BOND
     1    37    38    1
     2    38    39    1
     3    32    31    2
     4    39    40    2
     5    39    41   am
     6    31    30    1
     7    35    34    2
     8    41    42    1
     9    34    33    1
    10    34    36   am
    11    42    45    1
    12    42    43    1
    13    30    33    1
    14    30    29    1
    15    45    46    1
    16    50    49    1
    17    46    47    1
    18    43    44    2
    19    43    52   am
    20    47    48    1
    21    58    52    1
    22    58    57    1
    23    66    65    1
    24    52    53    1
    25    49    48    2
    26    49    51    1
    27    57    56    1
    28    65    64    1
    29    53    56    1
    30    53    54    1
    31    64    63    1
    32    54    55    2
    33    54    59   am
    34    59    60    1
    35    63    60    1
    36     4     3    2
    37     8     6   am
    38    13    10    1
    39    13    14    1
    40    60    61    1
    41    12    11    2
    42    10    11    1
    43    10     9    1
    44    11    17   am
    45     3     9   am
    46     3     2    1
    47     6     5    1
    48     6     7    2
    49    62    61    2
    50     5     2    1
    51    16    14   am
    52    14    15    2
    53    17    18    1
    54     2     1    1
    55    18    19    1
    56    19    20    2
    57    28    26    1
    58    26    25    1
    59    25    27    1
    60    25    22    1
    61    21    22    1
    62    70    69    2
    63    22    23    1
    64    69    68    1
    65    72    71    1
    66    71    68    1
    67    23    24    2
    68    68    67    1
