@<TRIPOS>MOLECULE
tmp/3a5yA00.pdb
 236 221 0 0 0
SMALL
GASTEIGER

@<TRIPOS>ATOM
      1  N         -7.4900   -2.2240  -11.0600 N.3    49  LEU49      -0.1245
      2  CA        -6.4240   -3.1640  -11.3950 C.3    49  LEU49       0.1561
      3  C         -6.7010   -4.0800  -12.5820 C.2    49  LEU49       0.2260
      4  O         -7.8380   -4.4850  -12.8380 O.2    49  LEU49      -0.2867
      5  CB        -6.0840   -3.9920  -10.1450 C.3    49  LEU49       0.0270
      6  CG        -4.9280   -3.4930   -9.2580 C.3    49  LEU49       0.0019
      7  CD1       -4.7770   -1.9850   -9.3670 C.3    49  LEU49       0.0001
      8  CD2       -5.1590   -3.9190   -7.8130 C.3    49  LEU49       0.0001
      9  N         -0.6730   -7.8940   -5.3930 N.3    72  SER72      -0.1217
     10  CA        -0.1590   -7.5750   -4.0550 C.3    72  SER72       0.1889
     11  C         -0.3880   -8.8650   -3.2720 C.2    72  SER72       0.2288
     12  O         -1.3220   -9.6130   -3.5700 O.2    72  SER72      -0.2866
     13  CB        -0.9450   -6.4000   -3.4360 C.3    72  SER72       0.2089
     14  OG        -1.0870   -6.5210   -2.0280 O.3    72  SER72      -0.2183
     15  N         -1.5530   -9.2440   -0.3510 N.3    74  GLU74      -0.1245
     16  CA        -2.5310   -9.0470    0.7200 C.3    74  GLU74       0.1567
     17  C         -3.4520  -10.2110    1.1060 C.2    74  GLU74       0.2260
     18  O         -3.5520  -10.5530    2.2840 O.2    74  GLU74      -0.2867
     19  CB        -3.3750   -7.7940    0.4090 C.3    74  GLU74       0.0388
     20  CG        -4.5230   -7.5530    1.3740 C.3    74  GLU74       0.1160
     21  CD        -5.1330   -6.1620    1.2200 C.2    74  GLU74       0.3649
     22  OE1       -5.0370   -5.5890    0.1200 O.co2  74  GLU74      -0.2457
     23  OE2       -5.7120   -5.6430    2.2000 O.co2  74  GLU74      -0.2457
     24  N          1.3540   -6.3880  -12.2680 N.3    96  ARG96      -0.1245
     25  CA         0.1820   -5.6380  -12.7400 C.3    96  ARG96       0.1563
     26  C          0.3480   -5.3790  -14.2110 C.2    96  ARG96       0.2260
     27  O          1.3740   -4.8590  -14.6540 O.2    96  ARG96      -0.2867
     28  CB         0.0250   -4.3330  -11.9780 C.3    96  ARG96       0.0307
     29  CG        -0.2740   -4.5930  -10.5190 C.3    96  ARG96       0.0489
     30  CD        -0.2650   -3.3440   -9.6870 C.3    96  ARG96       0.2205
     31  NE        -0.3400   -3.7020   -8.2780 N.pl3  96  ARG96      -0.0865
     32  CZ        -0.7620   -2.8860   -7.3220 C.cat  96  ARG96       0.5346
     33  NH1       -0.7910   -3.3030   -6.0620 N.pl3  96  ARG96       0.1354
     34  NH2       -1.1830   -1.6650   -7.6320 N.pl3  96  ARG96       0.1354
     35  N          0.1840   -3.3850  -16.7000 N.3    98  GLU98      -0.1245
     36  CA         0.1210   -1.9900  -17.0790 C.3    98  GLU98       0.1567
     37  C          1.4380   -1.5460  -17.7000 C.2    98  GLU98       0.2260
     38  O          2.5260   -2.0470  -17.3860 O.2    98  GLU98      -0.2867
     39  CB        -0.2680   -1.1210  -15.8730 C.3    98  GLU98       0.0388
     40  CG         0.5660   -1.3500  -14.6450 C.3    98  GLU98       0.1160
     41  CD        -0.1340   -0.9360  -13.3550 C.2    98  GLU98       0.3649
     42  OE1        0.5730   -0.5570  -12.4170 O.co2  98  GLU98      -0.2457
     43  OE2       -1.3790   -1.0030  -13.2600 O.co2  98  GLU98      -0.2457
     44  N          7.6680    5.7110  -13.5140 N.3   103  TYR103     -0.1227
     45  CA         7.4990    5.2310  -12.1500 C.3   103  TYR103      0.1736
     46  C          6.7270    3.9190  -12.0390 C.2   103  TYR103      0.2595
     47  O          6.2310    3.5760  -10.9610 O.2   103  TYR103     -0.2718
     48  CB         6.7920    6.3050  -11.3210 C.3   103  TYR103      0.0548
     49  CG         7.4990    7.6420  -11.3480 C.ar  103  TYR103     -0.0200
     50  CD1        8.8050    7.7680  -10.8780 C.ar  103  TYR103     -0.0009
     51  CD2        6.8820    8.7670  -11.8830 C.ar  103  TYR103     -0.0009
     52  CE1        9.4820    8.9780  -10.9460 C.ar  103  TYR103      0.0417
     53  CE2        7.5500    9.9880  -11.9550 C.ar  103  TYR103      0.0417
     54  CZ         8.8510   10.0830  -11.4860 C.ar  103  TYR103      0.1957
     55  OH         9.5290   11.2750  -11.5670 O.3   103  TYR103     -0.2866
     56  N          6.6390    3.1860  -13.1450 N.am  104  HIS104     -0.1961
     57  CA         5.9070    1.9240  -13.1790 C.3   104  HIS104      0.1787
     58  C          6.6080    0.8530  -13.9960 C.2   104  HIS104      0.2620
     59  O          7.2140    1.1360  -15.0350 O.2   104  HIS104     -0.2715
     60  CB         4.5130    2.0920  -13.8300 C.3   104  HIS104      0.0785
     61  CG         3.5480    2.9260  -13.0480 C.ar  104  HIS104      0.0821
     62  ND1        3.6040    4.3050  -13.0140 N.ar  104  HIS104     -0.2267
     63  CD2        2.4890    2.5740  -12.2800 C.ar  104  HIS104      0.1154
     64  CE1        2.6220    4.7640  -12.2590 C.ar  104  HIS104      0.1986
     65  NE2        1.9300    3.7350  -11.8010 N.ar  104  HIS104     -0.2212
     66  N          6.5090   -0.3840  -13.5190 N.am  105  ASN105     -0.1972
     67  CA         7.0210   -1.5430  -14.2410 C.3   105  ASN105      0.1688
     68  C          5.9550   -2.6030  -13.9680 C.2   105  ASN105      0.2292
     69  O          5.4240   -2.6650  -12.8570 O.2   105  ASN105     -0.2864
     70  CB         8.3740   -2.0160  -13.7190 C.3   105  ASN105      0.1181
     71  CG         9.0850   -2.9110  -14.7210 C.2   105  ASN105      0.2629
     72  OD1        9.4500   -2.4630  -15.8140 O.2   105  ASN105     -0.2716
     73  ND2        9.2630   -4.1820  -14.3700 N.am  105  ASN105     -0.0877
     74  N          7.1600   -5.4450  -10.0990 N.3   108  PHE108     -0.1241
     75  CA         7.9280   -4.5740   -9.2280 C.3   108  PHE108      0.1605
     76  C          8.0150   -5.2200   -7.8680 C.2   108  PHE108      0.2264
     77  O          7.3240   -6.2090   -7.5920 O.2   108  PHE108     -0.2867
     78  CB         7.2350   -3.2030   -9.1360 C.3   108  PHE108      0.0534
     79  CG         5.8270   -3.2660   -8.6080 C.ar  108  PHE108     -0.0203
     80  CD1        4.7620   -3.6020   -9.4440 C.ar  108  PHE108     -0.0042
     81  CD2        5.5640   -2.9840   -7.2700 C.ar  108  PHE108     -0.0042
     82  CE1        3.4470   -3.6510   -8.9500 C.ar  108  PHE108     -0.0003
     83  CE2        4.2610   -3.0270   -6.7620 C.ar  108  PHE108     -0.0003
     84  CZ         3.1930   -3.3620   -7.6030 C.ar  108  PHE108     -0.0000
     85  N          7.3340   -5.2830   -3.9180 N.3   110  MET110     -0.1245
     86  CA         6.4850   -4.7020   -2.9000 C.3   110  MET110      0.1570
     87  C          7.0170   -5.0550   -1.5310 C.2   110  MET110      0.2261
     88  O          7.5300   -6.1550   -1.3360 O.2   110  MET110     -0.2867
     89  CB         5.0630   -5.2630   -3.0040 C.3   110  MET110      0.0387
     90  CG         4.0360   -4.5090   -2.1900 C.3   110  MET110      0.0595
     91  SD         3.5460   -2.9660   -3.0120 S.3   110  MET110     -0.1393
     92  CE         2.0950   -3.6250   -3.9740 C.3   110  MET110      0.0692
     93  N          5.3130   -5.3220    1.8920 N.3   112  GLU112     -0.1245
     94  CA         3.9810   -5.2530    2.4650 C.3   112  GLU112      0.1567
     95  C          4.0090   -5.9470    3.8140 C.2   112  GLU112      0.2260
     96  O          4.5730   -7.0440    3.9540 O.2   112  GLU112     -0.2867
     97  CB         2.9580   -5.8960    1.5000 C.3   112  GLU112      0.0388
     98  CG         1.5110   -5.8240    1.9600 C.3   112  GLU112      0.1160
     99  CD         0.4880   -6.1730    0.8670 C.2   112  GLU112      0.3649
    100  OE1       -0.6230   -6.5960    1.2310 O.co2 112  GLU112     -0.2457
    101  OE2        0.7710   -6.0050   -0.3410 O.co2 112  GLU112     -0.2457
    102  N          1.9440   -6.4120    7.9620 N.3   114  TYR114     -0.1241
    103  CA         0.7740   -6.3180    8.8160 C.3   114  TYR114      0.1605
    104  C          1.1420   -6.3080   10.2890 C.2   114  TYR114      0.2264
    105  O          2.0210   -7.0460   10.7380 O.2   114  TYR114     -0.2867
    106  CB        -0.1830   -7.4750    8.5030 C.3   114  TYR114      0.0534
    107  CG        -0.7440   -7.3700    7.1050 C.ar  114  TYR114     -0.0201
    108  CD1        0.0190   -7.7380    5.9870 C.ar  114  TYR114     -0.0009
    109  CD2       -1.9840   -6.7720    6.8840 C.ar  114  TYR114     -0.0009
    110  CE1       -0.4380   -7.4970    4.6910 C.ar  114  TYR114      0.0417
    111  CE2       -2.4440   -6.5200    5.5960 C.ar  114  TYR114      0.0417
    112  CZ        -1.6680   -6.8740    4.5050 C.ar  114  TYR114      0.1957
    113  OH        -2.0920   -6.5200    3.2450 O.3   114  TYR114     -0.2866
    114  N        -11.5200    0.6350   -0.0370 N.3   193  SER193     -0.1217
    115  CA       -10.7900   -0.5530   -0.4930 C.3   193  SER193      0.1889
    116  C        -11.0640   -1.6960    0.4960 C.2   193  SER193      0.2288
    117  O        -12.2040   -2.1270    0.6330 O.2   193  SER193     -0.2866
    118  CB        -9.2920   -0.2680   -0.5690 C.3   193  SER193      0.2089
    119  OG        -8.5980   -1.3970   -1.0630 O.3   193  SER193     -0.2183
    120  N         -7.9210    4.4910    5.9420 N.3   207  ARG207     -0.1245
    121  CA        -6.9170    4.2440    4.9290 C.3   207  ARG207      0.1563
    122  C         -6.0120    5.4550    4.7750 C.2   207  ARG207      0.2260
    123  O         -6.4440    6.5980    4.9540 O.2   207  ARG207     -0.2867
    124  CB        -7.5860    3.9580    3.5850 C.3   207  ARG207      0.0307
    125  CG        -6.6190    3.9110    2.4140 C.3   207  ARG207      0.0489
    126  CD        -7.3600    3.8810    1.0840 C.3   207  ARG207      0.2205
    127  NE        -6.4390    3.9600   -0.0440 N.pl3 207  ARG207     -0.0865
    128  CZ        -6.8210    4.0950   -1.3080 C.cat 207  ARG207      0.5346
    129  NH1       -8.1140    4.1720   -1.6040 N.pl3 207  ARG207      0.1354
    130  NH2       -5.9140    4.1510   -2.2760 N.pl3 207  ARG207      0.1354
    131  N         -2.2910    6.9820    2.4770 N.3   209  GLU209     -0.1245
    132  CA        -1.2860    6.8250    1.4360 C.3   209  GLU209      0.1567
    133  C         -0.1650    7.7560    1.8770 C.2   209  GLU209      0.2260
    134  O         -0.4060    8.6730    2.6730 O.2   209  GLU209     -0.2867
    135  CB        -1.8060    7.2650    0.0780 C.3   209  GLU209      0.0388
    136  CG        -2.9920    6.4610   -0.4110 C.3   209  GLU209      0.1160
    137  CD        -3.2810    6.7030   -1.8760 C.2   209  GLU209      0.3649
    138  OE1       -3.1860    7.8730   -2.3140 O.co2 209  GLU209     -0.2457
    139  OE2       -3.6110    5.7250   -2.5830 O.co2 209  GLU209     -0.2457
    140  N          4.2070    8.4290   -5.2100 N.3   216  GLU216     -0.1231
    141  CA         3.3050    7.7460   -4.2900 C.3   216  GLU216      0.1699
    142  C          4.1040    6.5330   -3.8060 C.2   216  GLU216      0.2592
    143  O          4.4100    5.6320   -4.5960 O.2   216  GLU216     -0.2718
    144  CB         2.0390    7.2680   -5.0040 C.3   216  GLU216      0.0402
    145  CG         1.0510    6.6110   -4.0610 C.3   216  GLU216      0.1161
    146  CD         0.0550    5.7260   -4.7840 C.2   216  GLU216      0.3649
    147  OE1       -0.5560    6.1920   -5.7680 O.co2 216  GLU216     -0.2457
    148  OE2       -0.1180    4.5660   -4.3590 O.co2 216  GLU216     -0.2457
    149  N          4.4330    6.5020   -2.5210 N.am  217  LEU217     -0.1966
    150  CA         5.2230    5.4060   -1.9700 C.3   217  LEU217      0.1728
    151  C          4.4900    4.2270   -1.3320 C.2   217  LEU217      0.2616
    152  O          4.9430    3.0950   -1.4590 O.2   217  LEU217     -0.2715
    153  CB         6.2360    5.9490   -0.9490 C.3   217  LEU217      0.0311
    154  CG         7.3100    6.8810   -1.5170 C.3   217  LEU217      0.0022
    155  CD1        8.1420    7.4780   -0.3720 C.3   217  LEU217      0.0001
    156  CD2        8.1960    6.0930   -2.4950 C.3   217  LEU217      0.0001
    157  N          3.3770    4.4760   -0.6470 N.am  218  ALA218     -0.1963
    158  CA         2.6800    3.3900    0.0290 C.3   218  ALA218      0.1728
    159  C          1.1820    3.6360    0.2100 C.2   218  ALA218      0.2616
    160  O          0.6850    4.7460   -0.0130 O.2   218  ALA218     -0.2715
    161  CB         3.3660    3.1130    1.4010 C.3   218  ALA218      0.0334
    162  N          0.4720    2.5880    0.6190 N.am  219  ASN219     -0.1972
    163  CA        -0.9850    2.6210    0.8150 C.3   219  ASN219      0.1688
    164  C         -1.3040    1.6070    1.9090 C.2   219  ASN219      0.2292
    165  O         -0.9680    0.4320    1.7810 O.2   219  ASN219     -0.2864
    166  CB        -1.6550    2.2480   -0.5190 C.3   219  ASN219      0.1181
    167  CG        -3.1730    2.2090   -0.4500 C.2   219  ASN219      0.2629
    168  OD1       -3.8090    2.9550    0.2920 O.2   219  ASN219     -0.2716
    169  ND2       -3.7640    1.3380   -1.2600 N.am  219  ASN219     -0.0877
    170  N         -4.0740    0.3720    5.4890 N.3   221  PHE221     -0.1241
    171  CA        -5.3950    0.4360    6.1180 C.3   221  PHE221      0.1605
    172  C         -5.4410   -0.1550    7.5180 C.2   221  PHE221      0.2264
    173  O         -4.5790   -0.9470    7.9000 O.2   221  PHE221     -0.2867
    174  CB        -6.4490   -0.4310    5.3810 C.3   221  PHE221      0.0534
    175  CG        -6.2860   -0.5510    3.8820 C.ar  221  PHE221     -0.0203
    176  CD1       -6.4620   -1.7940    3.2700 C.ar  221  PHE221     -0.0042
    177  CD2       -6.0860    0.5620    3.0770 C.ar  221  PHE221     -0.0042
    178  CE1       -6.4490   -1.9230    1.8780 C.ar  221  PHE221     -0.0003
    179  CE2       -6.0690    0.4440    1.6870 C.ar  221  PHE221     -0.0003
    180  CZ        -6.2530   -0.8020    1.0850 C.ar  221  PHE221     -0.0000
    181  N         -7.2800   -2.7300    8.8760 N.3   223  GLU223     -0.1245
    182  CA        -7.9840   -3.7790    8.1410 C.3   223  GLU223      0.1567
    183  C         -9.4300   -4.1820    8.4250 C.2   223  GLU223      0.2260
    184  O         -9.8240   -4.3920    9.5730 O.2   223  GLU223     -0.2867
    185  CB        -7.1260   -5.0400    8.1820 C.3   223  GLU223      0.0388
    186  CG        -5.6960   -4.8280    7.6920 C.3   223  GLU223      0.1160
    187  CD        -5.6170   -4.4430    6.2160 C.2   223  GLU223      0.3649
    188  OE1       -6.5810   -4.6920    5.4770 O.co2 223  GLU223     -0.2457
    189  OE2       -4.5750   -3.9050    5.7860 O.co2 223  GLU223     -0.2457
    190  N         -2.3890   -2.8520    8.0300 N.3   268  GLY268     -0.1210
    191  CA        -1.3940   -3.3040    7.0740 C.3   268  GLY268      0.1956
    192  C         -1.0370   -2.2160    6.0910 C.2   268  GLY268      0.2612
    193  O         -1.7620   -1.2280    5.9460 O.2   268  GLY268     -0.2717
    194  N          0.0820   -2.3930    5.3970 N.am  269  VAL269     -0.1965
    195  CA         0.5110   -1.3940    4.4420 C.3   269  VAL269      0.1727
    196  C          1.4250   -1.9950    3.3720 C.2   269  VAL269      0.2616
    197  O          2.2400   -2.8710    3.6640 O.2   269  VAL269     -0.2715
    198  CB         1.2540   -0.2670    5.1770 C.3   269  VAL269      0.0290
    199  CG1        2.4230   -0.8560    5.9610 C.3   269  VAL269      0.0023
    200  CG2        1.7130    0.7790    4.1890 C.3   269  VAL269      0.0023
    201  N          1.2790   -1.5100    2.1430 N.am  270  ALA270     -0.1977
    202  CA         2.0720   -1.9690    1.0000 C.3   270  ALA270      0.1597
    203  C          2.8590   -0.8010    0.4300 C.2   270  ALA270      0.2287
    204  O          2.2880    0.2420    0.1180 O.2   270  ALA270     -0.2864
    205  CB         1.1690   -2.5400   -0.0660 C.3   270  ALA270      0.0319
    206  N          5.9960    0.5350   -2.3900 N.3   272  GLY272     -0.1225
    207  CA         6.7600    0.2220   -3.5860 C.3   272  GLY272      0.1811
    208  C          8.2420    0.3350   -3.3120 C.2   272  GLY272      0.2280
    209  O          8.7700    1.4480   -3.2120 O.2   272  GLY272     -0.2866
    210  N         10.8060   -0.3880   -5.2630 N.3   274  ASP274     -0.1225
    211  CA        11.5560    0.2260   -6.3630 C.3   274  ASP274      0.1805
    212  C         11.4890    1.7480   -6.3200 C.2   274  ASP274      0.2597
    213  O         12.4890    2.4250   -6.5880 O.2   274  ASP274     -0.2718
    214  CB        11.0350   -0.2710   -7.7110 C.3   274  ASP274      0.1424
    215  CG        10.8290   -1.7500   -7.7090 C.2   274  ASP274      0.3668
    216  OD1       11.8320   -2.4800   -7.8580 O.co2 274  ASP274     -0.2456
    217  OD2        9.6680   -2.1740   -7.5110 O.co2 274  ASP274     -0.2456
    218  N         10.3140    2.2890   -6.0000 N.am  275  ARG275     -0.1979
    219  CA        10.1800    3.7410   -5.9080 C.3   275  ARG275      0.1597
    220  C         11.0050    4.2770   -4.7380 C.2   275  ARG275      0.2287
    221  O         11.6280    5.3380   -4.8440 O.2   275  ARG275     -0.2864
    222  CB         8.7090    4.1420   -5.7460 C.3   275  ARG275      0.0334
    223  CG         7.9530    4.0480   -7.0520 C.3   275  ARG275      0.0492
    224  CD         6.4800    4.2700   -6.8580 C.3   275  ARG275      0.2205
    225  NE         5.7480    4.0400   -8.1000 N.pl3 275  ARG275     -0.0865
    226  CZ         4.4410    4.2630   -8.2470 C.cat 275  ARG275      0.5346
    227  NH1        3.7180    4.7250   -7.2340 N.pl3 275  ARG275      0.1354
    228  NH2        3.8530    4.0070   -9.4060 N.pl3 275  ARG275      0.1354
    229  N         12.4070    4.2630  -12.6530 N.3   286  LEU286     -0.1245
    230  CA        12.3720    2.9730  -11.9890 C.3   286  LEU286      0.1561
    231  C         13.3500    2.0390  -12.6970 C.2   286  LEU286      0.2260
    232  O         14.0330    1.2290  -12.0600 O.2   286  LEU286     -0.2867
    233  CB        10.9520    2.3890  -12.0560 C.3   286  LEU286      0.0270
    234  CG        10.4460    1.7010  -10.7880 C.3   286  LEU286      0.0019
    235  CD1       10.3960    2.7240   -9.6620 C.3   286  LEU286      0.0001
    236  CD2        9.0580    1.1130  -11.0150 C.3   286  LEU286      0.0001
@<TRIPOS>BOND
     1    37    38    2
     2    37    36    1
     3    36    35    1
     4    36    39    1
     5    39    40    1
     6    72    71    2
     7    59    58    2
     8    71    73   am
     9    71    70    1
    10    27    26    2
    11    40    41    1
    12    67    68    1
    13    67    70    1
    14    67    66    1
    15    26    25    1
    16    58    66   am
    17    58    57    1
    18    68    69    2
    19    60    57    1
    20    60    61    1
    21    44    45    1
    22    41    43   ar
    23    41    42   ar
    24    57    56    1
    25    56    46   am
    26    61    62   ar
    27    61    63   ar
    28    62    64   ar
    29     4     3    2
    30    25    24    1
    31    25    28    1
    32   231   232    2
    33   231   230    1
    34   229   230    1
    35     3     2    1
    36    63    65   ar
    37    64    65   ar
    38    45    46    1
    39    45    48    1
    40   233   230    1
    41   233   234    1
    42    46    47    2
    43    28    29    1
    44    53    51   ar
    45    53    54   ar
    46    51    49   ar
    47    55    54    1
    48    54    52   ar
    49     2     1    1
    50     2     5    1
    51    49    48    1
    52    49    50   ar
    53   236   234    1
    54    52    50   ar
    55   234   235    1
    56    29    30    1
    57     5     6    1
    58    74    75    1
    59    30    31    1
    60    80    82   ar
    61    80    79   ar
    62   228   226    1
    63     7     6    1
    64     6     8    1
    65    75    78    1
    66    75    76    1
    67    78    79    1
    68    82    84   ar
    69    79    81   ar
    70    31    32    2
    71   226   225    2
    72   226   227    1
    73   225   224    1
    74    76    77    2
    75   216   215   ar
    76   214   215    1
    77   214   211    1
    78   215   217   ar
    79    34    32    1
    80    84    83   ar
    81    32    33    1
    82    81    83   ar
    83   223   224    1
    84   223   222    1
    85   213   212    2
    86   211   212    1
    87   211   210    1
    88   212   218   am
    89   218   219    1
    90   219   222    1
    91   219   220    1
    92   147   146   ar
    93     9    10    1
    94   140   141    1
    95   144   141    1
    96   144   145    1
    97   221   220    2
    98   146   148   ar
    99   146   145    1
   100   143   142    2
   101   141   142    1
   102    10    13    1
   103    10    11    1
   104    92    91    1
   105    85    86    1
   106   142   149   am
   107   207   208    1
   108   207   206    1
   109    12    11    2
   110    13    14    1
   111   208   209    2
   112    91    90    1
   113    89    86    1
   114    89    90    1
   115    86    87    1
   116   139   137   ar
   117   149   150    1
   118   156   154    1
   119   138   137   ar
   120   130   128    1
   121   150   151    1
   122   150   153    1
   123   137   136    1
   124   129   128    1
   125    87    88    2
   126   154   153    1
   127   154   155    1
   128   152   151    2
   129   151   157   am
   130   128   127    2
   131   169   167   am
   132   119   118    1
   133   157   158    1
   134   118   115    1
   135   166   167    1
   136   166   163    1
   137   115   114    1
   138   115   116    1
   139   167   168    2
   140   136   135    1
   141    15    16    1
   142   101    99   ar
   143   205   202    1
   144   127   126    1
   145   160   159    2
   146   158   159    1
   147   158   161    1
   148   135   132    1
   149   204   203    2
   150    22    21   ar
   151   159   162   am
   152    19    16    1
   153    19    20    1
   154   203   202    1
   155   116   117    2
   156   162   163    1
   157    16    17    1
   158   163   164    1
   159    99   100   ar
   160    99    98    1
   161   202   201    1
   162   126   125    1
   163   180   179   ar
   164   180   178   ar
   165    17    18    2
   166    21    20    1
   167    21    23   ar
   168   132   133    1
   169   132   131    1
   170    97    98    1
   171    97    94    1
   172   179   177   ar
   173   165   164    2
   174   133   134    2
   175   178   176   ar
   176    93    94    1
   177   201   196   am
   178   125   124    1
   179    94    95    1
   180   177   175   ar
   181   113   112    1
   182   176   175   ar
   183   196   197    2
   184   196   195    1
   185   124   121    1
   186    95    96    2
   187   175   174    1
   188   200   198    1
   189   195   198    1
   190   195   194    1
   191   112   110   ar
   192   112   111   ar
   193   110   108   ar
   194   122   121    1
   195   122   123    2
   196   121   120    1
   197   198   199    1
   198   174   171    1
   199   194   192   am
   200   188   187   ar
   201   170   171    1
   202   111   109   ar
   203   189   187   ar
   204   193   192    2
   205   108   107   ar
   206   192   191    1
   207   171   172    1
   208   187   186    1
   209   109   107   ar
   210   191   190    1
   211   107   106    1
   212   172   173    2
   213   186   185    1
   214   102   103    1
   215   182   185    1
   216   182   183    1
   217   182   181    1
   218   183   184    2
   219   106   103    1
   220   103   104    1
   221   104   105    2
