@<TRIPOS>MOLECULE
tmp/3a60B00.pdb
 162 150 0 0 0
SMALL
GASTEIGER

@<TRIPOS>ATOM
      1  N        -44.6050  -37.1730    4.5820 N.3    11  ARG11      -0.1245
      2  CA       -43.2730  -37.7340    4.7960 C.3    11  ARG11       0.1563
      3  C        -42.3840  -36.7510    5.5570 C.2    11  ARG11       0.2260
      4  O        -42.7090  -35.5710    5.6880 O.2    11  ARG11      -0.2867
      5  CB       -42.6100  -38.0700    3.4620 C.3    11  ARG11       0.0307
      6  CG       -42.2270  -36.8700    2.6410 C.3    11  ARG11       0.0489
      7  CD       -41.8650  -37.2740    1.2190 C.3    11  ARG11       0.2205
      8  NE       -40.4280  -37.2650    0.9560 N.pl3  11  ARG11      -0.0865
      9  CZ       -39.8300  -36.3990    0.1360 C.cat  11  ARG11       0.5346
     10  NH1      -40.5520  -35.4720   -0.4980 N.pl3  11  ARG11       0.1354
     11  NH2      -38.5140  -36.4610   -0.0580 N.pl3  11  ARG11       0.1354
     12  N        -39.0010  -34.6620    5.7250 N.3    13  LEU13      -0.1231
     13  CA       -38.1080  -34.1490    4.6980 C.3    13  LEU13       0.1693
     14  C        -36.6700  -34.0210    5.2130 C.2    13  LEU13       0.2592
     15  O        -35.7190  -34.1410    4.4380 O.2    13  LEU13      -0.2718
     16  CB       -38.6460  -32.8140    4.1710 C.3    13  LEU13       0.0284
     17  CG       -39.9370  -32.8930    3.3410 C.3    13  LEU13       0.0019
     18  CD1      -40.5570  -31.5180    3.1730 C.3    13  LEU13       0.0001
     19  CD2      -39.6220  -33.4980    1.9910 C.3    13  LEU13       0.0001
     20  N        -36.5260  -33.8110    6.5220 N.am   14  GLY14      -0.1957
     21  CA       -35.2180  -33.7050    7.1250 C.3    14  GLY14       0.1869
     22  C        -35.2950  -33.4210    8.6050 C.2    14  GLY14       0.2309
     23  O        -36.3130  -32.9270    9.1010 O.2    14  GLY14      -0.2863
     24  N        -33.0860  -31.7580    9.4590 N.3    16  GLY16      -0.1225
     25  CA       -32.3980  -30.4720    9.2980 C.3    16  GLY16       0.1811
     26  C        -32.3960  -29.4660   10.4640 C.2    16  GLY16       0.2280
     27  O        -33.4320  -28.8660   10.8030 O.2    16  GLY16      -0.2866
     28  N        -38.5960  -31.4400    9.8480 N.3    21  VAL21      -0.1245
     29  CA       -39.3310  -30.6990    8.8250 C.3    21  VAL21       0.1561
     30  C        -40.1280  -31.7190    8.0430 C.2    21  VAL21       0.2260
     31  O        -39.5760  -32.5960    7.3780 O.2    21  VAL21      -0.2867
     32  CB       -38.4170  -29.9560    7.8380 C.3    21  VAL21       0.0252
     33  CG1      -39.2460  -29.3900    6.7070 C.3    21  VAL21       0.0019
     34  CG2      -37.6770  -28.8320    8.5530 C.3    21  VAL21       0.0019
     35  N        -44.6390  -27.4020    3.5400 N.3    37  ALA37      -0.1245
     36  CA       -43.5460  -27.9770    4.3180 C.3    37  ALA37       0.1562
     37  C        -43.8360  -27.4250    5.6980 C.2    37  ALA37       0.2260
     38  O        -44.0270  -26.2260    5.8400 O.2    37  ALA37      -0.2867
     39  CB       -42.2050  -27.4660    3.8300 C.3    37  ALA37       0.0290
     40  N        -42.3560  -26.9770    9.4290 N.3    39  LYS39      -0.1245
     41  CA       -41.1840  -27.1000   10.2910 C.3    39  LYS39       0.1561
     42  C        -41.5790  -26.9520   11.7690 C.2    39  LYS39       0.2260
     43  O        -42.1040  -25.9210   12.1820 O.2    39  LYS39      -0.2867
     44  CB       -40.1560  -26.0390    9.9010 C.3    39  LYS39       0.0271
     45  CG       -38.8270  -26.1930   10.6010 C.3    39  LYS39       0.0035
     46  CD       -37.9330  -24.9990   10.3160 C.3    39  LYS39       0.0206
     47  CE       -36.5970  -25.0860   11.0440 C.3    39  LYS39       0.1093
     48  NZ       -35.7890  -23.8470   10.8230 N.3    39  LYS39      -0.1314
     49  N        -37.3910  -18.4160    0.6800 N.3    49  VAL49      -0.1245
     50  CA       -38.5900  -19.2450    0.7920 C.3    49  VAL49       0.1561
     51  C        -39.6780  -18.5340    1.6080 C.2    49  VAL49       0.2260
     52  O        -39.4470  -18.0960    2.7450 O.2    49  VAL49      -0.2867
     53  CB       -38.2720  -20.6040    1.4380 C.3    49  VAL49       0.0252
     54  CG1      -37.7130  -20.4000    2.8270 C.3    49  VAL49       0.0019
     55  CG2      -39.5210  -21.4400    1.5000 C.3    49  VAL49       0.0019
     56  N        -43.9960  -23.4510    5.7710 N.3    65  LEU65      -0.1231
     57  CA       -43.2470  -22.8070    4.6960 C.3    65  LEU65       0.1693
     58  C        -43.6700  -23.3870    3.3600 C.2    65  LEU65       0.2592
     59  O        -43.9770  -24.5670    3.2810 O.2    65  LEU65      -0.2718
     60  CB       -41.7610  -23.0640    4.8990 C.3    65  LEU65       0.0284
     61  CG       -41.3340  -23.0670    6.3680 C.3    65  LEU65       0.0019
     62  CD1      -40.1970  -24.0470    6.5670 C.3    65  LEU65       0.0001
     63  CD2      -40.9560  -21.6580    6.8050 C.3    65  LEU65       0.0001
     64  N        -43.6830  -22.5630    2.3140 N.am   66  GLU66      -0.1966
     65  CA       -44.0600  -23.0430    0.9940 C.3    66  GLU66       0.1733
     66  C        -43.2450  -24.2900    0.6910 C.2    66  GLU66       0.2616
     67  O        -42.1430  -24.4550    1.2080 O.2    66  GLU66      -0.2715
     68  CB       -43.7500  -22.0010   -0.0740 C.3    66  GLU66       0.0429
     69  CG       -42.2890  -21.9720   -0.5010 C.3    66  GLU66       0.1163
     70  CD       -42.0390  -21.0490   -1.6800 C.2    66  GLU66       0.3649
     71  OE1      -41.4040  -19.9900   -1.4760 O.co2  66  GLU66      -0.2457
     72  OE2      -42.4850  -21.3790   -2.8050 O.co2  66  GLU66      -0.2457
     73  N        -43.7870  -25.1670   -0.1450 N.am   67  TYR67      -0.1960
     74  CA       -43.0860  -26.3880   -0.5140 C.3    67  TYR67       0.1771
     75  C        -42.3550  -26.1570   -1.8340 C.2    67  TYR67       0.2619
     76  O        -42.8730  -25.5000   -2.7330 O.2    67  TYR67      -0.2715
     77  CB       -44.0730  -27.5540   -0.6610 C.3    67  TYR67       0.0574
     78  CG       -43.4390  -28.8300   -1.1880 C.ar   67  TYR67      -0.0198
     79  CD1      -42.5960  -29.5990   -0.3850 C.ar   67  TYR67      -0.0009
     80  CD2      -43.6480  -29.2450   -2.4990 C.ar   67  TYR67      -0.0009
     81  CE1      -41.9790  -30.7430   -0.8770 C.ar   67  TYR67       0.0417
     82  CE2      -43.0310  -30.3840   -2.9980 C.ar   67  TYR67       0.0417
     83  CZ       -42.1970  -31.1250   -2.1810 C.ar   67  TYR67       0.1957
     84  OH       -41.5550  -32.2290   -2.6790 O.3    67  TYR67      -0.2866
     85  N        -41.1520  -26.7100   -1.9410 N.am   68  LEU68      -0.1963
     86  CA       -40.3310  -26.5610   -3.1290 C.3    68  LEU68       0.1728
     87  C        -40.0460  -27.9420   -3.7060 C.2    68  LEU68       0.2616
     88  O        -39.3750  -28.7540   -3.0650 O.2    68  LEU68      -0.2715
     89  CB       -39.0220  -25.8750   -2.7450 C.3    68  LEU68       0.0311
     90  CG       -39.1570  -24.6690   -1.8090 C.3    68  LEU68       0.0022
     91  CD1      -37.8120  -24.3630   -1.1800 C.3    68  LEU68       0.0001
     92  CD2      -39.6960  -23.4710   -2.5760 C.3    68  LEU68       0.0001
     93  N        -40.5500  -28.2100   -4.9080 N.am   69  SER69      -0.1950
     94  CA       -40.3500  -29.5120   -5.5320 C.3    69  SER69       0.1924
     95  C        -38.8680  -29.8270   -5.6970 C.2    69  SER69       0.2314
     96  O        -38.3940  -30.8800   -5.2560 O.2    69  SER69      -0.2863
     97  CB       -41.0540  -29.5770   -6.8920 C.3    69  SER69       0.2116
     98  OG       -40.5780  -28.5830   -7.7890 O.3    69  SER69      -0.2180
     99  N        -36.6780  -29.2000   -4.1130 N.3    71  GLY71      -0.1210
    100  CA       -36.1520  -28.9340   -2.7870 C.3    71  GLY71       0.1956
    101  C        -34.8690  -29.6290   -2.3980 C.2    71  GLY71       0.2611
    102  O        -34.2540  -29.2900   -1.3850 O.2    71  GLY71      -0.2717
    103  N        -34.4480  -30.6070   -3.1850 N.am   72  GLU72      -0.1979
    104  CA       -33.2220  -31.3130   -2.8490 C.3    72  GLU72       0.1602
    105  C        -32.4490  -31.5690   -4.1280 C.2    72  GLU72       0.2287
    106  O        -31.4640  -32.2910   -4.1330 O.2    72  GLU72      -0.2864
    107  CB       -33.5750  -32.6270   -2.1610 C.3    72  GLU72       0.0415
    108  CG       -32.7120  -32.9900   -0.9690 C.3    72  GLU72       0.1163
    109  CD       -33.3840  -34.0530   -0.1120 C.2    72  GLU72       0.3649
    110  OE1      -34.1010  -34.9010   -0.6990 O.co2  72  GLU72      -0.2457
    111  OE2      -33.2070  -34.0470    1.1310 O.co2  72  GLU72      -0.2457
    112  N        -28.5470  -30.5630   -4.0830 N.3    75  MET75      -0.1245
    113  CA       -27.6920  -31.5190   -3.3900 C.3    75  MET75       0.1570
    114  C        -27.4940  -32.8140   -4.1990 C.2    75  MET75       0.2261
    115  O        -26.7280  -33.6970   -3.8040 O.2    75  MET75      -0.2867
    116  CB       -28.3100  -31.8180   -2.0200 C.3    75  MET75       0.0387
    117  CG       -27.3710  -32.4000   -0.9960 C.3    75  MET75       0.0595
    118  SD       -28.2660  -32.8650    0.5220 S.3    75  MET75      -0.1393
    119  CE       -29.0570  -34.4420    0.0310 C.3    75  MET75       0.0692
    120  N        -26.2190  -28.1730    1.2660 N.3   115  GLU115     -0.1231
    121  CA       -27.3910  -28.8230    1.8350 C.3   115  GLU115      0.1699
    122  C        -28.4670  -27.7980    2.2250 C.2   115  GLU115      0.2592
    123  O        -29.6010  -28.1580    2.5280 O.2   115  GLU115     -0.2718
    124  CB       -26.9770  -29.6440    3.0660 C.3   115  GLU115      0.0402
    125  CG       -26.0200  -30.8280    2.7770 C.3   115  GLU115      0.1161
    126  CD       -24.5680  -30.4110    2.4490 C.2   115  GLU115      0.3649
    127  OE1      -23.8020  -31.2560    1.9110 O.co2 115  GLU115     -0.2457
    128  OE2      -24.1880  -29.2490    2.7370 O.co2 115  GLU115     -0.2457
    129  N        -28.1040  -26.5200    2.2040 N.am  116  ASN116     -0.1974
    130  CA       -29.0160  -25.4490    2.5820 C.3   116  ASN116      0.1688
    131  C        -29.5640  -24.6970    1.3920 C.2   116  ASN116      0.2292
    132  O        -30.2720  -23.7020    1.5510 O.2   116  ASN116     -0.2864
    133  CB       -28.3080  -24.4650    3.5160 C.3   116  ASN116      0.1181
    134  CG       -28.7210  -24.6430    4.9650 C.2   116  ASN116      0.2629
    135  OD1      -27.8760  -24.7060    5.8690 O.2   116  ASN116     -0.2716
    136  ND2      -30.0320  -24.7180    5.1980 N.am  116  ASN116     -0.0877
    137  N        -31.9980  -24.7350   -1.7170 N.3   118  MET118     -0.1245
    138  CA       -33.1650  -25.3820   -2.2990 C.3   118  MET118      0.1570
    139  C        -33.4940  -24.7680   -3.6600 C.2   118  MET118      0.2261
    140  O        -32.9390  -23.7430   -4.0340 O.2   118  MET118     -0.2867
    141  CB       -34.3650  -25.2090   -1.3630 C.3   118  MET118      0.0387
    142  CG       -34.1200  -25.6570    0.0560 C.3   118  MET118      0.0595
    143  SD       -35.4220  -25.1040    1.1570 S.3   118  MET118     -0.1393
    144  CE       -35.0190  -23.3530    1.3510 C.3   118  MET118      0.0692
    145  N        -33.5010  -19.9650    3.3770 N.3   128  THR128     -0.1218
    146  CA       -34.3730  -19.7810    4.5350 C.3   128  THR128      0.1862
    147  C        -33.7570  -18.7470    5.4780 C.2   128  THR128      0.2287
    148  O        -32.9700  -17.8890    5.0650 O.2   128  THR128     -0.2866
    149  CB       -34.5800  -21.1130    5.3220 C.3   128  THR128      0.1770
    150  OG1      -33.3170  -21.6270    5.7780 O.3   128  THR128     -0.2211
    151  CG2      -35.2400  -22.1460    4.4300 C.3   128  THR128      0.0375
    152  N        -32.6920  -19.8620    8.9230 N.3   130  PHE130     -0.1241
    153  CA       -32.4590  -20.8740    9.9520 C.3   130  PHE130      0.1605
    154  C        -32.2610  -20.3970   11.3910 C.2   130  PHE130      0.2264
    155  O        -32.3080  -19.2030   11.6970 O.2   130  PHE130     -0.2867
    156  CB       -31.2550  -21.7490    9.5510 C.3   130  PHE130      0.0534
    157  CG       -31.5370  -23.2290    9.5900 C.ar  130  PHE130     -0.0203
    158  CD1      -31.9470  -23.8450   10.7770 C.ar  130  PHE130     -0.0042
    159  CD2      -31.4080  -24.0010    8.4370 C.ar  130  PHE130     -0.0042
    160  CE1      -32.2270  -25.2030   10.8190 C.ar  130  PHE130     -0.0003
    161  CE2      -31.6830  -25.3620    8.4640 C.ar  130  PHE130     -0.0003
    162  CZ       -32.0950  -25.9660    9.6590 C.ar  130  PHE130     -0.0000
@<TRIPOS>BOND
     1    98    97    1
     2    97    94    1
     3    95    94    1
     4    95    96    2
     5    94    93    1
     6    93    87   am
     7   114   115    2
     8   114   113    1
     9   106   105    2
    10   105   104    1
    11    99   100    1
    12   112   113    1
    13   140   139    2
    14    87    86    1
    15    87    88    2
    16   139   138    1
    17   113   116    1
    18   103   104    1
    19   103   101   am
    20    86    89    1
    21    86    85    1
    22    82    80   ar
    23    82    83   ar
    24   104   107    1
    25    72    70   ar
    26   100   101    1
    27    89    90    1
    28    76    75    2
    29    84    83    1
    30    92    90    1
    31    80    78   ar
    32   101   102    2
    33   138   137    1
    34   138   141    1
    35    83    81   ar
    36   107   108    1
    37   116   117    1
    38    85    75   am
    39    75    74    1
    40    90    91    1
    41    70    71   ar
    42    70    69    1
    43   141   142    1
    44    78    77    1
    45    78    79   ar
    46   117   118    1
    47   108   109    1
    48    81    79   ar
    49   110   109   ar
    50    77    74    1
    51    74    73    1
    52    69    68    1
    53    10     9    1
    54    73    66   am
    55   109   111   ar
    56    68    65    1
    57    11     9    1
    58   119   118    1
    59   142   143    1
    60     9     8    2
    61    49    50    1
    62    66    65    1
    63    66    67    2
    64    50    53    1
    65    50    51    1
    66     8     7    1
    67    65    64    1
    68   143   144    1
    69     7     6    1
    70   120   121    1
    71   131   132    2
    72   131   130    1
    73    53    55    1
    74    53    54    1
    75    51    52    2
    76   121   122    1
    77   121   124    1
    78   127   126   ar
    79    19    17    1
    80   129   122   am
    81   129   130    1
    82   122   123    2
    83    64    58   am
    84   126   128   ar
    85   126   125    1
    86   130   133    1
    87     6     5    1
    88   125   124    1
    89    18    17    1
    90    59    58    2
    91    17    16    1
    92    58    57    1
    93   145   146    1
    94     5     2    1
    95   133   134    1
    96    35    36    1
    97    39    36    1
    98    16    13    1
    99    36    37    1
   100   151   149    1
   101    15    14    2
   102   146   149    1
   103   146   147    1
   104     1     2    1
   105    57    60    1
   106    57    56    1
   107    13    14    1
   108    13    12    1
   109     2     3    1
   110    60    61    1
   111   134   136   am
   112   134   135    2
   113   148   147    2
   114    14    20   am
   115   149   150    1
   116     3     4    2
   117    37    38    2
   118    61    62    1
   119    61    63    1
   120    20    21    1
   121    33    32    1
   122    21    22    1
   123    31    30    2
   124    32    34    1
   125    32    29    1
   126    30    29    1
   127   159   161   ar
   128   159   157   ar
   129   161   162   ar
   130    22    23    2
   131    29    28    1
   132   152   153    1
   133    25    24    1
   134    25    26    1
   135    40    41    1
   136   156   157    1
   137   156   153    1
   138   157   158   ar
   139   162   160   ar
   140    44    41    1
   141    44    45    1
   142   153   154    1
   143    41    42    1
   144    46    45    1
   145    46    47    1
   146    26    27    2
   147   158   160   ar
   148    48    47    1
   149   154   155    2
   150    42    43    2
