@<TRIPOS>MOLECULE
tmp/3a6oA00.pdb
 213 206 0 0 0
SMALL
GASTEIGER

@<TRIPOS>ATOM
      1  N         37.1360   67.6020   67.0890 N.3   164  HIS164     -0.1241
      2  CA        37.3080   66.1410   67.3920 C.3   164  HIS164      0.1621
      3  C         37.1740   65.7260   68.8650 C.2   164  HIS164      0.2264
      4  O         36.7840   64.6080   69.1570 O.2   164  HIS164     -0.2867
      5  CB        38.6570   65.6160   66.8760 C.3   164  HIS164      0.0745
      6  CG        38.6390   65.2880   65.4040 C.ar  164  HIS164      0.0817
      7  ND1       37.7410   64.3920   64.8450 N.ar  164  HIS164     -0.2268
      8  CD2       39.3940   65.7530   64.3670 C.ar  164  HIS164      0.1154
      9  CE1       37.9510   64.3140   63.5350 C.ar  164  HIS164      0.1986
     10  NE2       38.9510   65.1240   63.2180 N.ar  164  HIS164     -0.2212
     11  N         33.8110   61.6680   73.2600 N.3   201  HIS201     -0.1226
     12  CA        32.4550   62.0110   72.8590 C.3   201  HIS201      0.1752
     13  C         31.6960   60.9450   72.0210 C.2   201  HIS201      0.2596
     14  O         30.4730   61.0700   71.8280 O.2   201  HIS201     -0.2718
     15  CB        32.4610   63.3070   72.1240 C.3   201  HIS201      0.0759
     16  CG        32.8790   63.1750   70.7270 C.ar  201  HIS201      0.0818
     17  ND1       34.1930   63.1220   70.3700 N.ar  201  HIS201     -0.2268
     18  CD2       32.1670   63.0780   69.5910 C.ar  201  HIS201      0.1154
     19  CE1       34.2820   62.9800   69.0570 C.ar  201  HIS201      0.1986
     20  NE2       33.0630   62.9830   68.5560 N.ar  201  HIS201     -0.2212
     21  N         32.3940   59.9160   71.5190 N.am  202  HIS202     -0.1975
     22  CA        31.7440   58.9830   70.6390 C.3   202  HIS202      0.1656
     23  C         31.5830   57.7170   71.4300 C.2   202  HIS202      0.2291
     24  O         30.6380   56.9280   71.2330 O.2   202  HIS202     -0.2864
     25  CB        32.5790   58.8080   69.3810 C.3   202  HIS202      0.0771
     26  CG        34.0460   58.6220   69.6380 C.ar  202  HIS202      0.0820
     27  ND1       34.5580   57.4680   70.1790 N.ar  202  HIS202     -0.2267
     28  CD2       35.1070   59.4420   69.4290 C.ar  202  HIS202      0.1154
     29  CE1       35.8730   57.5980   70.3250 C.ar  202  HIS202      0.1986
     30  NE2       36.2370   58.7800   69.8680 N.ar  202  HIS202     -0.2212
     31  N         33.4390   55.0190   71.4160 N.3   204  TYR204     -0.1241
     32  CA        33.7880   53.8050   70.6710 C.3   204  TYR204      0.1605
     33  C         35.0980   53.0920   71.1750 C.2   204  TYR204      0.2264
     34  O         35.5830   52.0660   70.6060 O.2   204  TYR204     -0.2867
     35  CB        33.8880   54.1000   69.1500 C.3   204  TYR204      0.0534
     36  CG        32.5480   54.1140   68.3950 C.ar  204  TYR204     -0.0201
     37  CD1       31.9170   52.9380   67.9750 C.ar  204  TYR204     -0.0009
     38  CD2       31.9400   55.3290   68.0350 C.ar  204  TYR204     -0.0009
     39  CE1       30.6910   52.9940   67.2810 C.ar  204  TYR204      0.0417
     40  CE2       30.7260   55.3980   67.3840 C.ar  204  TYR204      0.0417
     41  CZ        30.1140   54.2440   67.0070 C.ar  204  TYR204      0.1957
     42  OH        28.9140   54.3560   66.3510 O.3   204  TYR204     -0.2866
     43  N         36.8190   45.8340   68.8100 N.3   244  HIS244     -0.1241
     44  CA        37.9320   46.3700   69.5940 C.3   244  HIS244      0.1621
     45  C         37.4380   46.9630   70.9240 C.2   244  HIS244      0.2264
     46  O         36.2820   47.4230   71.0400 O.2   244  HIS244     -0.2867
     47  CB        38.6990   47.4780   68.8310 C.3   244  HIS244      0.0745
     48  CG        37.8050   48.4470   68.1430 C.ar  244  HIS244      0.0817
     49  ND1       37.1890   49.4830   68.8040 N.ar  244  HIS244     -0.2268
     50  CD2       37.3490   48.4930   66.8680 C.ar  244  HIS244      0.1154
     51  CE1       36.4140   50.1450   67.9680 C.ar  244  HIS244      0.1986
     52  NE2       36.4890   49.5580   66.7880 N.ar  244  HIS244     -0.2212
     53  N         41.9650   49.0800   65.8480 N.3   286  PHE286     -0.1227
     54  CA        41.1220   49.5390   64.7830 C.3   286  PHE286      0.1736
     55  C         41.8610   50.4720   63.8540 C.2   286  PHE286      0.2595
     56  O         42.6710   51.3100   64.3260 O.2   286  PHE286     -0.2718
     57  CB        39.9340   50.3220   65.4080 C.3   286  PHE286      0.0547
     58  CG        39.1400   51.1330   64.4170 C.ar  286  PHE286     -0.0202
     59  CD1       39.2890   52.5300   64.3660 C.ar  286  PHE286     -0.0042
     60  CD2       38.2560   50.4940   63.5240 C.ar  286  PHE286     -0.0042
     61  CE1       38.5690   53.3260   63.4260 C.ar  286  PHE286     -0.0003
     62  CE2       37.5400   51.2680   62.5770 C.ar  286  PHE286     -0.0003
     63  CZ        37.7130   52.6940   62.5460 C.ar  286  PHE286     -0.0000
     64  N         41.5080   50.4170   62.5670 N.am  287  ALA287     -0.1980
     65  CA        42.0960   51.3320   61.5480 C.3   287  ALA287      0.1597
     66  C         43.6460   51.2740   61.6060 C.2   287  ALA287      0.2287
     67  O         44.1850   50.1770   61.6740 O.2   287  ALA287     -0.2864
     68  CB        41.5590   52.7920   61.6480 C.3   287  ALA287      0.0319
     69  N         45.7420   53.4360   66.4100 N.3   290  VAL290     -0.1245
     70  CA        44.6720   54.1050   67.1660 C.3   290  VAL290      0.1561
     71  C         44.7500   53.5080   68.5410 C.2   290  VAL290      0.2260
     72  O         44.0410   52.5310   68.8540 O.2   290  VAL290     -0.2867
     73  CB        43.2010   54.0150   66.5720 C.3   290  VAL290      0.0252
     74  CG1       42.2560   54.6950   67.4910 C.3   290  VAL290      0.0019
     75  CG2       43.0960   54.5610   65.0610 C.3   290  VAL290      0.0019
     76  N         42.0740   52.1000   70.7420 N.3   293  MET293     -0.1245
     77  CA        41.1790   51.0620   70.2600 C.3   293  MET293      0.1570
     78  C         41.8620   49.7380   69.9080 C.2   293  MET293      0.2261
     79  O         41.8970   49.3780   68.7330 O.2   293  MET293     -0.2867
     80  CB        40.2950   51.6150   69.1160 C.3   293  MET293      0.0387
     81  CG        39.6500   52.8740   69.4820 C.3   293  MET293      0.0595
     82  SD        38.2460   53.4590   68.5050 S.3   293  MET293     -0.1393
     83  CE        39.1620   53.9100   67.1210 C.3   293  MET293      0.0692
     84  N         23.3780   46.9650   66.6530 N.3   323  ARG323     -0.1245
     85  CA        23.9280   47.5240   65.4370 C.3   323  ARG323      0.1563
     86  C         25.3800   47.1760   65.6850 C.2   323  ARG323      0.2260
     87  O         25.9010   47.4420   66.7770 O.2   323  ARG323     -0.2867
     88  CB        23.7740   49.0110   65.4570 C.3   323  ARG323      0.0307
     89  CG        24.1600   49.8700   64.2860 C.3   323  ARG323      0.0489
     90  CD        25.6290   49.9130   63.7550 C.3   323  ARG323      0.2205
     91  NE        26.8420   50.4950   64.3920 N.pl3 323  ARG323     -0.0865
     92  CZ        27.7910   51.3110   63.8230 C.cat 323  ARG323      0.5346
     93  NH1       28.8920   51.6000   64.4830 N.pl3 323  ARG323      0.1354
     94  NH2       27.6770   51.8990   62.6680 N.pl3 323  ARG323      0.1354
     95  N         29.1800   47.3620   65.2020 N.3   325  ASP325     -0.1225
     96  CA        30.1630   48.2440   64.7000 C.3   325  ASP325      0.1805
     97  C         31.3880   47.4860   64.1040 C.2   325  ASP325      0.2597
     98  O         31.8280   46.4010   64.6510 O.2   325  ASP325     -0.2718
     99  CB        30.5490   49.1500   65.8460 C.3   325  ASP325      0.1424
    100  CG        31.7280   50.0500   65.5090 C.2   325  ASP325      0.3668
    101  OD1       32.8720   49.7440   65.9410 O.co2 325  ASP325     -0.2456
    102  OD2       31.4890   51.0580   64.8030 O.co2 325  ASP325     -0.2456
    103  N         31.9260   48.0380   62.9930 N.am  326  VAL326     -0.1980
    104  CA        32.9740   47.3730   62.1920 C.3   326  VAL326      0.1595
    105  C         32.6930   45.8480   62.1600 C.2   326  VAL326      0.2287
    106  O         33.5870   45.0200   62.4480 O.2   326  VAL326     -0.2864
    107  CB        34.3570   47.6240   62.7970 C.3   326  VAL326      0.0276
    108  CG1       35.4880   47.1930   61.8360 C.3   326  VAL326      0.0022
    109  CG2       34.5130   49.0770   63.2510 C.3   326  VAL326      0.0022
    110  N         32.3280   43.5820   59.9370 N.3   328  ASN328     -0.1225
    111  CA        32.9730   42.7780   58.9470 C.3   328  ASN328      0.1785
    112  C         34.4130   42.5570   59.3020 C.2   328  ASN328      0.2597
    113  O         35.1410   42.0050   58.4810 O.2   328  ASN328     -0.2718
    114  CB        32.9070   43.4230   57.5860 C.3   328  ASN328      0.1169
    115  CG        33.3350   44.9220   57.5810 C.2   328  ASN328      0.2627
    116  OD1       33.6310   45.4900   58.6150 O.2   328  ASN328     -0.2716
    117  ND2       33.4580   45.5400   56.3810 N.am  328  ASN328     -0.0877
    118  N         34.8700   43.0080   60.4830 N.am  329  GLU329     -0.1979
    119  CA        36.2280   42.6720   60.8470 C.3   329  GLU329      0.1602
    120  C         36.2640   41.7300   62.0900 C.2   329  GLU329      0.2287
    121  O         37.3240   41.4560   62.6170 O.2   329  GLU329     -0.2864
    122  CB        37.0310   43.9100   61.0570 C.3   329  GLU329      0.0415
    123  CG        37.2110   44.6860   59.7780 C.3   329  GLU329      0.1163
    124  CD        38.0550   45.9470   59.9930 C.2   329  GLU329      0.3649
    125  OE1       39.0480   45.9060   60.7270 O.co2 329  GLU329     -0.2457
    126  OE2       37.7200   46.9880   59.4720 O.co2 329  GLU329     -0.2457
    127  N         27.3320   46.8870   60.5610 N.3   354  GLU354     -0.1245
    128  CA        27.8890   48.0820   59.9490 C.3   354  GLU354      0.1567
    129  C         29.0200   47.6490   59.0420 C.2   354  GLU354      0.2260
    130  O         30.2360   47.5380   59.4240 O.2   354  GLU354     -0.2867
    131  CB        28.4180   48.9900   61.0170 C.3   354  GLU354      0.0388
    132  CG        28.7430   50.2930   60.4450 C.3   354  GLU354      0.1160
    133  CD        30.1430   50.6610   60.7330 C.2   354  GLU354      0.3649
    134  OE1       30.4600   51.7690   60.3380 O.co2 354  GLU354     -0.2457
    135  OE2       30.9310   49.8470   61.3090 O.co2 354  GLU354     -0.2457
    136  N         30.0050   48.5820   54.8270 N.3   356  TRP356     -0.1227
    137  CA        29.8140   49.5670   53.7320 C.3   356  TRP356      0.1737
    138  C         29.8560   48.9710   52.2830 C.2   356  TRP356      0.2595
    139  O         29.2730   49.5050   51.3230 O.2   356  TRP356     -0.2718
    140  CB        30.9230   50.6410   53.8350 C.3   356  TRP356      0.0564
    141  CG        30.8280   51.6120   55.0380 C.ar  356  TRP356      0.0003
    142  CD1       30.7340   51.2780   56.3580 C.ar  356  TRP356      0.0946
    143  CD2       30.8400   53.0320   54.9920 C.ar  356  TRP356      0.0152
    144  NE1       30.7070   52.3810   57.1270 N.ar  356  TRP356     -0.2442
    145  CE2       30.7860   53.4850   56.3240 C.ar  356  TRP356      0.0810
    146  CE3       30.9340   53.9730   53.9560 C.ar  356  TRP356      0.0012
    147  CZ2       30.7970   54.8630   56.6610 C.ar  356  TRP356      0.0191
    148  CZ3       30.9320   55.3340   54.2680 C.ar  356  TRP356      0.0001
    149  CH2       30.8550   55.7720   55.6110 C.ar  356  TRP356      0.0015
    150  N         30.5930   47.8920   52.1240 N.am  357  HIS357     -0.1975
    151  CA        30.6200   47.1980   50.8670 C.3   357  HIS357      0.1656
    152  C         29.5540   46.0770   50.7060 C.2   357  HIS357      0.2291
    153  O         28.5480   46.0470   51.4490 O.2   357  HIS357     -0.2864
    154  CB        32.0090   46.6660   50.6630 C.3   357  HIS357      0.0771
    155  CG        32.5370   45.7970   51.7880 C.ar  357  HIS357      0.0820
    156  ND1       32.5230   44.4140   51.7350 N.ar  357  HIS357     -0.2267
    157  CD2       33.2610   46.1040   52.8800 C.ar  357  HIS357      0.1154
    158  CE1       33.2010   43.9160   52.7600 C.ar  357  HIS357      0.1986
    159  NE2       33.6470   44.9230   53.4800 N.ar  357  HIS357     -0.2212
    160  N         23.5830   48.5490   57.4900 N.3   372  MET372     -0.1245
    161  CA        23.4290   49.9860   57.0610 C.3   372  MET372      0.1570
    162  C         23.8070   49.9830   55.6610 C.2   372  MET372      0.2261
    163  O         24.9420   49.7210   55.3620 O.2   372  MET372     -0.2867
    164  CB        24.3620   50.9430   57.7540 C.3   372  MET372      0.0387
    165  CG        24.5200   50.6860   59.2090 C.3   372  MET372      0.0595
    166  SD        24.4600   52.2850   60.0360 S.3   372  MET372     -0.1393
    167  CE        26.1280   52.7400   60.3940 C.3   372  MET372      0.0692
    168  N         25.1960   55.5350   48.3860 N.3   378  GLU378     -0.1245
    169  CA        25.9790   55.9480   47.2370 C.3   378  GLU378      0.1567
    170  C         25.1300   56.3900   45.9880 C.2   378  GLU378      0.2260
    171  O         25.2740   57.5250   45.4650 O.2   378  GLU378     -0.2867
    172  CB        26.9050   54.8630   46.8810 C.3   378  GLU378      0.0388
    173  CG        28.0800   54.8700   47.7700 C.3   378  GLU378      0.1160
    174  CD        29.2210   53.9820   47.1690 C.2   378  GLU378      0.3649
    175  OE1       29.0580   53.4020   46.0000 O.co2 378  GLU378     -0.2457
    176  OE2       30.2730   53.8780   47.8840 O.co2 378  GLU378     -0.2457
    177  N         26.9100   59.5540   61.4300 N.3   420  HIS420     -0.1226
    178  CA        27.9120   60.2100   62.2160 C.3   420  HIS420      0.1752
    179  C         29.3280   60.1660   61.6300 C.2   420  HIS420      0.2596
    180  O         30.2210   60.8950   62.1290 O.2   420  HIS420     -0.2718
    181  CB        27.9070   59.6880   63.5940 C.3   420  HIS420      0.0759
    182  CG        28.1750   58.2270   63.7110 C.ar  420  HIS420      0.0818
    183  ND1       27.4460   57.2560   63.0230 N.ar  420  HIS420     -0.2268
    184  CD2       28.9850   57.5580   64.5790 C.ar  420  HIS420      0.1154
    185  CE1       27.8630   56.0600   63.4150 C.ar  420  HIS420      0.1986
    186  NE2       28.8040   56.2180   64.3530 N.ar  420  HIS420     -0.2212
    187  N         29.4990   59.3940   60.5240 N.am  421  ASP421     -0.1974
    188  CA        30.7550   59.2290   59.8160 C.3   421  ASP421      0.1709
    189  C         30.6840   59.9200   58.4640 C.2   421  ASP421      0.2293
    190  O         31.4490   59.5760   57.5430 O.2   421  ASP421     -0.2864
    191  CB        31.0280   57.7370   59.6370 C.3   421  ASP421      0.1436
    192  CG        31.3310   57.0200   60.9870 C.2   421  ASP421      0.3671
    193  OD1       31.7950   57.7220   61.9340 O.co2 421  ASP421     -0.2456
    194  OD2       31.1630   55.7510   61.0880 O.co2 421  ASP421     -0.2456
    195  N         32.2850   64.1700   59.7880 N.3   465  ASP465     -0.1239
    196  CA        32.7850   64.0230   61.1510 C.3   465  ASP465      0.1674
    197  C         34.0200   64.9190   61.4370 C.2   465  ASP465      0.2266
    198  O         35.0680   64.7590   60.8120 O.2   465  ASP465     -0.2867
    199  CB        33.2250   62.6020   61.2850 C.3   465  ASP465      0.1410
    200  CG        33.7700   62.3200   62.6510 C.2   465  ASP465      0.3668
    201  OD1       33.4360   63.1940   63.4510 O.co2 465  ASP465     -0.2456
    202  OD2       34.4700   61.2670   62.9570 O.co2 465  ASP465     -0.2456
    203  N         28.2930   66.0830   63.4390 N.3   469  ARG469     -0.1245
    204  CA        27.7790   65.9290   64.8340 C.3   469  ARG469      0.1563
    205  C         27.5610   67.2530   65.5830 C.2   469  ARG469      0.2260
    206  O         27.9730   67.3610   66.7100 O.2   469  ARG469     -0.2867
    207  CB        28.6700   64.9930   65.6660 C.3   469  ARG469      0.0307
    208  CG        29.4490   64.0810   64.7410 C.3   469  ARG469      0.0489
    209  CD        29.7010   62.7380   65.2310 C.3   469  ARG469      0.2205
    210  NE        31.0870   62.4730   65.5070 N.pl3 469  ARG469     -0.0865
    211  CZ        31.7900   61.4210   65.0500 C.cat 469  ARG469      0.5346
    212  NH1       31.2980   60.4500   64.2590 N.pl3 469  ARG469      0.1354
    213  NH2       33.0630   61.3370   65.3900 N.pl3 469  ARG469      0.1354
@<TRIPOS>BOND
     1   171   170    2
     2   170   169    1
     3   175   174   ar
     4   172   169    1
     5   172   173    1
     6   174   173    1
     7   174   176   ar
     8   169   168    1
     9   154   151    1
    10   154   155    1
    11   152   151    1
    12   152   153    2
    13   151   150    1
    14   139   138    2
    15   156   155   ar
    16   156   158   ar
    17   155   157   ar
    18   150   138   am
    19   138   137    1
    20   158   159   ar
    21   157   159   ar
    22   137   140    1
    23   137   136    1
    24   140   141    1
    25   146   148   ar
    26   146   143   ar
    27   148   149   ar
    28   143   141   ar
    29   143   145   ar
    30   141   142   ar
    31   163   162    2
    32   149   147   ar
    33   162   161    1
    34   145   147   ar
    35   145   144   ar
    36   142   144   ar
    37   117   115   am
    38   161   160    1
    39   161   164    1
    40   190   189    2
    41   115   114    1
    42   115   116    2
    43   114   111    1
    44   164   165    1
    45   189   188    1
    46   113   112    2
    47   111   112    1
    48   111   110    1
    49   129   130    2
    50   129   128    1
    51   165   166    1
    52   112   118   am
    53   126   124   ar
    54   191   188    1
    55   191   192    1
    56   123   124    1
    57   123   122    1
    58   195   196    1
    59   188   187    1
    60   128   127    1
    61   128   131    1
    62   124   125   ar
    63   166   167    1
    64   134   133   ar
    65   132   133    1
    66   132   131    1
    67   118   119    1
    68   187   179   am
    69   133   135   ar
    70   198   197    2
    71   119   122    1
    72   119   120    1
    73   192   194   ar
    74   192   193   ar
    75   196   199    1
    76   196   197    1
    77   199   200    1
    78   177   178    1
    79    65    66    1
    80    65    68    1
    81    65    64    1
    82    66    67    2
    83   179   180    2
    84   179   178    1
    85   108   107    1
    86   120   121    2
    87   105   104    1
    88   105   106    2
    89   104   107    1
    90   104   103    1
    91   178   181    1
    92    63    62   ar
    93    63    61   ar
    94    64    55   am
    95    62    60   ar
    96   200   202   ar
    97   200   201   ar
    98    94    92    1
    99   107   109    1
   100   103    97   am
   101   183   185   ar
   102   183   182   ar
   103    10     9   ar
   104    10     8   ar
   105   185   186   ar
   106    61    59   ar
   107   203   204    1
   108    60    58   ar
   109     9     7   ar
   110   181   182    1
   111   182   184   ar
   112    90    89    1
   113    90    91    1
   114    92    91    2
   115    92    93    1
   116    55    56    2
   117    55    54    1
   118    97    98    2
   119    97    96    1
   120   212   211    1
   121    89    88    1
   122   186   184   ar
   123    59    58   ar
   124     8     6   ar
   125    58    57    1
   126    96    95    1
   127    96    99    1
   128   208   209    1
   129   208   207    1
   130    54    57    1
   131    54    53    1
   132   102   100   ar
   133   204   205    1
   134   204   207    1
   135     7     6   ar
   136   211   213    1
   137   211   210    2
   138    75    73    1
   139   209   210    1
   140     6     5    1
   141    85    88    1
   142    85    86    1
   143    85    84    1
   144   100    99    1
   145   100   101   ar
   146   205   206    2
   147    86    87    2
   148    42    41    1
   149    69    70    1
   150    73    70    1
   151    73    74    1
   152    52    50   ar
   153    52    51   ar
   154    50    48   ar
   155     5     2    1
   156    41    39   ar
   157    41    40   ar
   158     1     2    1
   159    83    82    1
   160    70    71    1
   161    39    37   ar
   162    40    38   ar
   163     2     3    1
   164    51    49   ar
   165    37    36   ar
   166    38    36   ar
   167    48    49   ar
   168    48    47    1
   169    36    35    1
   170    82    81    1
   171    71    72    2
   172    20    19   ar
   173    20    18   ar
   174    79    78    2
   175    43    44    1
   176    47    44    1
   177     3     4    2
   178    19    17   ar
   179    80    81    1
   180    80    77    1
   181    35    32    1
   182    25    26    1
   183    25    22    1
   184    28    26   ar
   185    28    30   ar
   186    18    16   ar
   187    44    45    1
   188    26    27   ar
   189    30    29   ar
   190    78    77    1
   191    27    29   ar
   192    77    76    1
   193    17    16   ar
   194    34    33    2
   195    22    23    1
   196    22    21    1
   197    32    33    1
   198    32    31    1
   199    16    15    1
   200    45    46    2
   201    24    23    2
   202    21    13   am
   203    14    13    2
   204    13    12    1
   205    15    12    1
   206    12    11    1
