@<TRIPOS>MOLECULE
tmp/3a6uA00.pdb
 172 162 0 0 0
SMALL
GASTEIGER

@<TRIPOS>ATOM
      1  N        -10.1880  -10.0880   24.7710 N.3     1  LEU1       -0.1245
      2  CA        -9.9340   -8.7770   24.1040 C.3     1  LEU1        0.1561
      3  C         -8.4390   -8.5640   23.8500 C.2     1  LEU1        0.2260
      4  O         -7.6740   -8.3350   24.7840 O.2     1  LEU1       -0.2867
      5  CB       -10.4920   -7.6520   24.9780 C.3     1  LEU1        0.0270
      6  CG       -10.6850   -6.2740   24.3410 C.3     1  LEU1        0.0019
      7  CD1      -11.5500   -6.3890   23.0950 C.3     1  LEU1        0.0001
      8  CD2      -11.3350   -5.3390   25.3530 C.3     1  LEU1        0.0001
      9  N         -5.3970   -6.3790   22.3570 N.3     3  ILE3       -0.1245
     10  CA        -5.0940   -4.9750   22.0600 C.3     3  ILE3        0.1561
     11  C         -3.7070   -4.7310   21.4490 C.2     3  ILE3        0.2260
     12  O         -2.6960   -5.2240   21.9510 O.2     3  ILE3       -0.2867
     13  CB        -5.2180   -4.1190   23.3480 C.3     3  ILE3        0.0252
     14  CG1       -6.5880   -4.3600   23.9920 C.3     3  ILE3        0.0019
     15  CG2       -5.0080   -2.6410   23.0260 C.3     3  ILE3        0.0019
     16  CD1       -7.7630   -4.0370   23.0930 C.3     3  ILE3        0.0001
     17  N         -0.9500   -1.8080   20.3410 N.3     5  VAL5       -0.1245
     18  CA        -0.5730   -0.4180   20.5550 C.3     5  VAL5        0.1561
     19  C          0.8040   -0.1450   19.9740 C.2     5  VAL5        0.2260
     20  O          1.6390   -1.0510   19.8750 O.2     5  VAL5       -0.2867
     21  CB        -0.5660   -0.0740   22.0590 C.3     5  VAL5        0.0252
     22  CG1       -1.9350   -0.3470   22.6570 C.3     5  VAL5        0.0019
     23  CG2        0.5050   -0.8830   22.7780 C.3     5  VAL5        0.0019
     24  N         -6.1320    9.4750   27.3400 N.3    20  ARG20      -0.1245
     25  CA        -7.4470    8.8900   27.1600 C.3    20  ARG20       0.1563
     26  C         -8.5710    9.7760   27.6710 C.2    20  ARG20       0.2260
     27  O         -8.4380   10.4470   28.6990 O.2    20  ARG20      -0.2867
     28  CB        -7.5040    7.5210   27.8430 C.3    20  ARG20       0.0307
     29  CG        -6.4950    6.5430   27.2840 C.3    20  ARG20       0.0489
     30  CD        -6.4740    5.2460   28.0730 C.3    20  ARG20       0.2205
     31  NE        -7.7430    4.5350   27.9730 N.pl3  20  ARG20      -0.0865
     32  CZ        -8.1720    3.9090   26.8820 C.cat  20  ARG20       0.5346
     33  NH1       -7.4290    3.8940   25.7760 N.pl3  20  ARG20       0.1354
     34  NH2       -9.3520    3.3020   26.8990 N.pl3  20  ARG20       0.1354
     35  N        -13.6040    7.0410   29.1050 N.3    24  ALA24      -0.1231
     36  CA       -13.1950    5.7710   28.5210 C.3    24  ALA24       0.1694
     37  C        -12.6220    4.9000   29.6380 C.2    24  ALA24       0.2592
     38  O        -12.3270    5.4000   30.7320 O.2    24  ALA24      -0.2718
     39  CB       -12.1370    6.0100   27.4570 C.3    24  ALA24       0.0304
     40  N        -12.4890    3.5990   29.3800 N.am   25  HIS25      -0.1962
     41  CA       -11.9010    2.6950   30.3580 C.3    25  HIS25       0.1787
     42  C        -10.5050    3.2780   30.5460 C.2    25  HIS25       0.2620
     43  O         -9.8960    3.7510   29.5830 O.2    25  HIS25      -0.2715
     44  CB       -11.8240    1.2750   29.7890 C.3    25  HIS25       0.0785
     45  CG       -11.1410    0.2920   30.6910 C.ar   25  HIS25       0.0821
     46  ND1       -9.8270   -0.0880   30.5200 N.ar   25  HIS25      -0.2267
     47  CD2      -11.5900   -0.3850   31.7760 C.ar   25  HIS25       0.1154
     48  CE1       -9.4960   -0.9600   31.4580 C.ar   25  HIS25       0.1986
     49  NE2      -10.5480   -1.1570   32.2330 N.ar   25  HIS25      -0.2212
     50  N        -10.0010    3.2610   31.7730 N.am   26  MET26      -0.1977
     51  CA        -8.6920    3.8370   32.0530 C.3    26  MET26       0.1605
     52  C         -8.6910    5.2940   31.5760 C.2    26  MET26       0.2287
     53  O         -7.7760    5.7360   30.8720 O.2    26  MET26      -0.2864
     54  CB        -7.5950    3.0330   31.3550 C.3    26  MET26       0.0413
     55  CG        -7.3630    1.6640   31.9820 C.3    26  MET26       0.0598
     56  SD        -7.0500    1.7920   33.7780 S.3    26  MET26      -0.1393
     57  CE        -5.4200    2.1120   33.7650 C.3    26  MET26       0.0692
     58  N         -1.1900    6.9850   27.3410 N.3    31  GLU31      -0.1231
     59  CA        -1.2640    5.7110   26.6350 C.3    31  GLU31       0.1699
     60  C         -0.4660    5.7200   25.3470 C.2    31  GLU31       0.2592
     61  O         -0.0400    6.7750   24.8760 O.2    31  GLU31      -0.2718
     62  CB        -2.7160    5.4110   26.2710 C.3    31  GLU31       0.0402
     63  CG        -3.2760    6.4660   25.3320 C.3    31  GLU31       0.1161
     64  CD        -4.5200    6.0350   24.5710 C.2    31  GLU31       0.3649
     65  OE1       -4.9880    6.8550   23.7510 O.co2  31  GLU31      -0.2457
     66  OE2       -5.0270    4.9050   24.7820 O.co2  31  GLU31      -0.2457
     67  N         -0.2670    4.5280   24.7920 N.am   32  PHE32      -0.1976
     68  CA         0.4090    4.3710   23.5110 C.3    32  PHE32       0.1639
     69  C         -0.7790    4.2390   22.5720 C.2    32  PHE32       0.2290
     70  O         -1.6950    3.4730   22.8480 O.2    32  PHE32      -0.2864
     71  CB         1.2250    3.0750   23.4630 C.3    32  PHE32       0.0560
     72  CG         2.3640    3.0280   24.4410 C.ar   32  PHE32      -0.0200
     73  CD1        3.3950    3.9560   24.3730 C.ar   32  PHE32      -0.0042
     74  CD2        2.4090    2.0440   25.4230 C.ar   32  PHE32      -0.0042
     75  CE1        4.4590    3.9080   25.2700 C.ar   32  PHE32      -0.0003
     76  CE2        3.4690    1.9840   26.3280 C.ar   32  PHE32      -0.0003
     77  CZ         4.4970    2.9160   26.2540 C.ar   32  PHE32      -0.0000
     78  N         -3.4790    2.9330   20.2680 N.3    34  GLY34      -0.1210
     79  CA        -3.8090    1.5530   19.9610 C.3    34  GLY34       0.1956
     80  C         -5.2920    1.2500   20.0520 C.2    34  GLY34       0.2612
     81  O         -6.1000    2.1010   20.4080 O.2    34  GLY34      -0.2717
     82  N         -5.6550    0.0170   19.7370 N.am   35  GLY35      -0.1942
     83  CA        -7.0520   -0.3560   19.7860 C.3    35  GLY35       0.2014
     84  C         -7.2370   -1.8470   19.6190 C.2    35  GLY35       0.2638
     85  O         -6.2730   -2.5880   19.4190 O.2    35  GLY35      -0.2714
     86  N         -8.4870   -2.2820   19.6920 N.am   36  LYS36      -0.1977
     87  CA        -8.8270   -3.6900   19.5750 C.3    36  LYS36       0.1596
     88  C         -8.4420   -4.3210   18.2350 C.2    36  LYS36       0.2287
     89  O         -8.6880   -3.7440   17.1750 O.2    36  LYS36      -0.2864
     90  CB       -10.3300   -3.8620   19.8010 C.3    36  LYS36       0.0298
     91  CG       -10.8250   -5.2930   19.7210 C.3    36  LYS36       0.0038
     92  CD       -12.3450   -5.3380   19.7870 C.3    36  LYS36       0.0206
     93  CE       -12.8720   -6.7680   19.7840 C.3    36  LYS36       0.1093
     94  NZ       -12.4540   -7.5210   18.5670 N.3    36  LYS36      -0.1314
     95  N         -5.6660    6.7470   14.7210 N.3    54  GLU54      -0.1245
     96  CA        -5.4490    7.6380   15.8570 C.3    54  GLU54       0.1567
     97  C         -4.4340    8.7720   15.7330 C.2    54  GLU54       0.2260
     98  O         -4.6740    9.8580   16.2560 O.2    54  GLU54      -0.2867
     99  CB        -5.1410    6.8120   17.1080 C.3    54  GLU54       0.0388
    100  CG        -6.3400    6.0080   17.5750 C.3    54  GLU54       0.1160
    101  CD        -6.1710    5.4460   18.9590 C.2    54  GLU54       0.3649
    102  OE1       -7.1540    4.8790   19.4780 O.co2  54  GLU54      -0.2457
    103  OE2       -5.0670    5.5690   19.5250 O.co2  54  GLU54      -0.2457
    104  N         -8.0390   -6.4800   34.4220 N.3    72  PHE72      -0.1241
    105  CA        -8.6050   -5.2720   35.0110 C.3    72  PHE72       0.1605
    106  C         -9.8110   -5.6930   35.8590 C.2    72  PHE72       0.2264
    107  O        -10.3570   -6.7780   35.6760 O.2    72  PHE72      -0.2867
    108  CB        -9.0420   -4.3100   33.9050 C.3    72  PHE72       0.0534
    109  CG        -7.9090   -3.5670   33.2740 C.ar   72  PHE72      -0.0203
    110  CD1       -7.3420   -2.4660   33.9120 C.ar   72  PHE72      -0.0042
    111  CD2       -7.3980   -3.9640   32.0410 C.ar   72  PHE72      -0.0042
    112  CE1       -6.2830   -1.7710   33.3290 C.ar   72  PHE72      -0.0003
    113  CE2       -6.3350   -3.2720   31.4470 C.ar   72  PHE72      -0.0003
    114  CZ        -5.7790   -2.1750   32.0900 C.ar   72  PHE72      -0.0000
    115  N        -12.4270   -6.4930   33.1230 N.3    75  ARG75      -0.1245
    116  CA       -12.0840   -7.0700   31.8290 C.3    75  ARG75       0.1563
    117  C        -10.6540   -7.5960   31.7860 C.2    75  ARG75       0.2260
    118  O         -9.7880   -7.1480   32.5410 O.2    75  ARG75      -0.2867
    119  CB       -12.2960   -6.0380   30.7130 C.3    75  ARG75       0.0307
    120  CG       -11.2550   -4.9300   30.6620 C.3    75  ARG75       0.0489
    121  CD       -11.7810   -3.7350   29.8820 C.3    75  ARG75       0.2205
    122  NE       -12.8830   -3.0940   30.5920 N.pl3  75  ARG75      -0.0865
    123  CZ       -13.7210   -2.2130   30.0550 C.cat  75  ARG75       0.5346
    124  NH1      -13.5990   -1.8530   28.7840 N.pl3  75  ARG75       0.1354
    125  NH2      -14.6820   -1.6820   30.7980 N.pl3  75  ARG75       0.1354
    126  N         -7.4750   -8.2100   29.2050 N.3    77  ILE77      -0.1245
    127  CA        -6.9770   -7.9010   27.8730 C.3    77  ILE77       0.1561
    128  C         -5.5210   -8.2770   27.6490 C.2    77  ILE77       0.2260
    129  O         -4.6910   -8.2400   28.5640 O.2    77  ILE77      -0.2867
    130  CB        -7.1820   -6.4020   27.5140 C.3    77  ILE77       0.0252
    131  CG1       -6.4390   -5.5060   28.5010 C.3    77  ILE77       0.0019
    132  CG2       -8.6630   -6.0640   27.5060 C.3    77  ILE77       0.0019
    133  CD1       -5.0320   -5.1880   28.0750 C.3    77  ILE77       0.0001
    134  N         -2.2160   -7.3270   25.6670 N.3    79  LEU79      -0.1245
    135  CA        -1.5970   -6.1890   25.0070 C.3    79  LEU79       0.1561
    136  C         -0.4180   -6.5760   24.1240 C.2    79  LEU79       0.2260
    137  O          0.4540   -7.3370   24.5330 O.2    79  LEU79      -0.2867
    138  CB        -1.1340   -5.1750   26.0610 C.3    79  LEU79       0.0270
    139  CG        -2.2270   -4.3780   26.7680 C.3    79  LEU79       0.0019
    140  CD1       -1.6930   -3.7440   28.0330 C.3    79  LEU79       0.0001
    141  CD2       -2.7470   -3.3180   25.8230 C.3    79  LEU79       0.0001
    142  N          2.5520   -4.8210   22.4460 N.3    81  PHE81      -0.1241
    143  CA         3.3390   -3.5930   22.3940 C.3    81  PHE81       0.1605
    144  C          4.3670   -3.5930   21.2640 C.2    81  PHE81       0.2264
    145  O          5.4050   -4.2540   21.3490 O.2    81  PHE81      -0.2867
    146  CB         4.0640   -3.3840   23.7240 C.3    81  PHE81       0.0534
    147  CG         3.1510   -3.1380   24.8910 C.ar   81  PHE81      -0.0203
    148  CD1        2.7020   -1.8560   25.1820 C.ar   81  PHE81      -0.0042
    149  CD2        2.7590   -4.1890   25.7180 C.ar   81  PHE81      -0.0042
    150  CE1        1.8750   -1.6230   26.2840 C.ar   81  PHE81      -0.0003
    151  CE2        1.9330   -3.9680   26.8210 C.ar   81  PHE81      -0.0003
    152  CZ         1.4900   -2.6850   27.1070 C.ar   81  PHE81      -0.0000
    153  N         -1.7260    3.0540   32.1910 N.3   113  PRO113     -0.2116
    154  CA        -2.4910    1.9940   32.8470 C.3   113  PRO113      0.1372
    155  C         -1.5010    1.0680   33.5410 C.2   113  PRO113      0.2244
    156  O         -0.3930    0.8630   33.0530 O.2   113  PRO113     -0.2868
    157  CB        -3.2210    1.3300   31.6820 C.3   113  PRO113      0.0268
    158  CG        -3.4800    2.4950   30.7720 C.3   113  PRO113      0.0207
    159  CD        -2.1250    3.1790   30.7780 C.3   113  PRO113      0.0892
    160  N         -1.1230   -1.8510   33.4780 N.3   115  ALA115     -0.1231
    161  CA        -0.6890   -2.9090   32.5730 C.3   115  ALA115      0.1694
    162  C          0.6300   -2.5670   31.8740 C.2   115  ALA115      0.2592
    163  O          1.4010   -3.4600   31.5410 O.2   115  ALA115     -0.2718
    164  CB        -1.7780   -3.1800   31.5340 C.3   115  ALA115      0.0304
    165  N          0.8860   -1.2770   31.6650 N.am  116  ASN116     -0.1974
    166  CA         2.0990   -0.8050   30.9950 C.3   116  ASN116      0.1688
    167  C          3.3540   -0.7630   31.8890 C.2   116  ASN116      0.2292
    168  O          4.4570   -0.4790   31.4080 O.2   116  ASN116     -0.2864
    169  CB         1.8550    0.6000   30.4350 C.3   116  ASN116      0.1181
    170  CG         0.7260    0.6450   29.4280 C.2   116  ASN116      0.2629
    171  OD1       -0.2010   -0.1640   29.4700 O.2   116  ASN116     -0.2716
    172  ND2        0.7900    1.6110   28.5230 N.am  116  ASN116     -0.0877
@<TRIPOS>BOND
     1    95    96    1
     2    97    96    1
     3    97    98    2
     4    96    99    1
     5    99   100    1
     6    89    88    2
     7   100   101    1
     8    88    87    1
     9    94    93    1
    10   101   102   ar
    11   101   103   ar
    12    85    84    2
    13    87    86    1
    14    87    90    1
    15    84    86   am
    16    84    83    1
    17    91    92    1
    18    91    90    1
    19    82    83    1
    20    82    80   am
    21    93    92    1
    22    20    19    2
    23    79    80    1
    24    79    78    1
    25    19    18    1
    26    80    81    2
    27    17    18    1
    28    18    21    1
    29   144   145    2
    30   144   143    1
    31    11    12    2
    32    11    10    1
    33    21    22    1
    34    21    23    1
    35    10     9    1
    36    10    13    1
    37   143   142    1
    38   143   146    1
    39    69    70    2
    40    69    68    1
    41    15    13    1
    42    16    14    1
    43     7     6    1
    44    13    14    1
    45    71    68    1
    46    71    72    1
    47    68    67    1
    48   146   147    1
    49    65    64   ar
    50     3     2    1
    51     3     4    2
    52     2     1    1
    53     2     5    1
    54   136   137    2
    55   136   135    1
    56     6     5    1
    57     6     8    1
    58    73    72   ar
    59    73    75   ar
    60    72    74   ar
    61    64    66   ar
    62    64    63    1
    63    67    60   am
    64    61    60    2
    65   147   148   ar
    66   147   149   ar
    67   135   134    1
    68   135   138    1
    69   148   150   ar
    70    75    77   ar
    71    63    62    1
    72    60    59    1
    73    74    76   ar
    74   149   151   ar
    75    33    32    1
    76   141   139    1
    77   138   139    1
    78    77    76   ar
    79    62    59    1
    80   150   152   ar
    81    59    58    1
    82   139   140    1
    83   151   152   ar
    84    32    34    1
    85    32    31    2
    86    25    24    1
    87    25    26    1
    88    25    28    1
    89    29    28    1
    90    29    30    1
    91    39    36    1
    92   132   130    1
    93   130   127    1
    94   130   131    1
    95   128   127    1
    96   128   129    2
    97    26    27    2
    98   127   126    1
    99    31    30    1
   100   133   131    1
   101    36    35    1
   102    36    37    1
   103   172   170   am
   104   124   123    1
   105    40    37   am
   106    40    41    1
   107   170   171    2
   108   170   169    1
   109    43    42    2
   110    37    38    2
   111    44    41    1
   112    44    45    1
   113   121   122    1
   114   121   120    1
   115   123   122    2
   116   123   125    1
   117    41    42    1
   118   169   166    1
   119    46    45   ar
   120    46    48   ar
   121    42    50   am
   122   120   119    1
   123    45    47   ar
   124   119   116    1
   125   158   159    1
   126   158   157    1
   127   159   153    1
   128    53    52    2
   129   166   165    1
   130   166   167    1
   131    54    55    1
   132    54    51    1
   133   168   167    2
   134   113   111   ar
   135   113   114   ar
   136    48    49   ar
   137   164   161    1
   138   163   162    2
   139    52    51    1
   140   165   162   am
   141   157   154    1
   142    50    51    1
   143    47    49   ar
   144   117   116    1
   145   117   118    2
   146   116   115    1
   147   162   161    1
   148    55    56    1
   149   111   109   ar
   150   114   112   ar
   151   153   154    1
   152   161   160    1
   153   154   155    1
   154   156   155    2
   155   109   108    1
   156   109   110   ar
   157   112   110   ar
   158    57    56    1
   159   108   105    1
   160   104   105    1
   161   105   106    1
   162   107   106    2
