@<TRIPOS>MOLECULE
tmp/3a70B00.pdb
 103 100 0 0 0
SMALL
GASTEIGER

@<TRIPOS>ATOM
      1  N         -3.8720   38.2720   24.1790 N.3    28  TYR28      -0.1241
      2  CA        -2.5640   37.6130   24.1210 C.3    28  TYR28       0.1605
      3  C         -1.4530   38.5040   23.5490 C.2    28  TYR28       0.2264
      4  O         -0.2870   38.1010   23.5000 O.2    28  TYR28      -0.2867
      5  CB        -2.6550   36.3510   23.2850 C.3    28  TYR28       0.0534
      6  CG        -3.1980   35.1310   23.9620 C.ar   28  TYR28      -0.0201
      7  CD1       -2.5750   34.5730   25.0870 C.ar   28  TYR28      -0.0009
      8  CD2       -4.2770   34.4460   23.4020 C.ar   28  TYR28      -0.0009
      9  CE1       -3.0640   33.3880   25.6730 C.ar   28  TYR28       0.0417
     10  CE2       -4.7670   33.2620   23.9660 C.ar   28  TYR28       0.0417
     11  CZ        -4.1840   32.7410   25.0990 C.ar   28  TYR28       0.1957
     12  OH        -4.6840   31.5470   25.5900 O.3    28  TYR28      -0.2866
     13  N         -3.4300   31.0670   29.6900 N.3   142  THR142     -0.1203
     14  CA        -2.0760   30.9180   30.2010 C.3   142  THR142      0.1994
     15  C         -0.9890   31.6340   29.3720 C.2   142  THR142      0.2618
     16  O         -0.9830   31.5510   28.1970 O.2   142  THR142     -0.2717
     17  CB        -1.6960   29.4700   30.3090 C.3   142  THR142      0.1784
     18  OG1       -2.6110   28.7860   31.1370 O.3   142  THR142     -0.2211
     19  CG2       -0.3530   29.3080   30.7740 C.3   142  THR142      0.0376
     20  N         -0.0660   32.2640   30.0720 N.am  143  SER143     -0.1951
     21  CA         0.8960   33.2430   29.5690 C.3   143  SER143      0.1924
     22  C          0.6110   34.6460   30.1130 C.2   143  SER143      0.2314
     23  O         -0.4510   34.9160   30.5070 O.2   143  SER143     -0.2863
     24  CB         1.0050   33.2500   28.0340 C.3   143  SER143      0.2116
     25  OG        -0.0840   33.8570   27.4470 O.3   143  SER143     -0.2180
     26  N         -4.4480   26.4810   36.4280 N.3   160  ASP160     -0.1239
     27  CA        -4.9310   25.4160   35.5120 C.3   160  ASP160      0.1674
     28  C         -5.0890   24.0860   36.2650 C.2   160  ASP160      0.2266
     29  O         -6.1120   23.4140   36.1200 O.2   160  ASP160     -0.2867
     30  CB        -3.9870   25.1840   34.3040 C.3   160  ASP160      0.1410
     31  CG        -3.8740   26.3950   33.3540 C.2   160  ASP160      0.3668
     32  OD1       -4.8440   27.1540   33.1280 O.co2 160  ASP160     -0.2456
     33  OD2       -2.7690   26.5500   32.7990 O.co2 160  ASP160     -0.2456
     34  N         -9.4910   32.7740   25.6500 N.3   205  HIS205     -0.1226
     35  CA        -9.0450   31.5210   25.0800 C.3   205  HIS205      0.1752
     36  C         -8.3520   30.6900   26.1630 C.2   205  HIS205      0.2597
     37  O         -7.6360   31.2340   26.9950 O.2   205  HIS205     -0.2718
     38  CB        -8.1490   31.8790   23.8760 C.3   205  HIS205      0.0759
     39  CG        -7.4240   30.7290   23.2600 C.ar  205  HIS205      0.0818
     40  ND1       -6.2440   30.2360   23.7780 N.ar  205  HIS205     -0.2268
     41  CD2       -7.6590   30.0340   22.1220 C.ar  205  HIS205      0.1154
     42  CE1       -5.7950   29.2770   22.9930 C.ar  205  HIS205      0.1986
     43  NE2       -6.6470   29.1160   21.9940 N.ar  205  HIS205     -0.2212
     44  N         -8.6000   29.3760   26.1440 N.am  206  SER206     -0.1938
     45  CA        -7.9770   28.4360   27.0480 C.3   206  SER206      0.2055
     46  C         -8.3740   28.6840   28.5170 C.2   206  SER206      0.2642
     47  O         -9.5450   28.6020   28.8380 O.2   206  SER206     -0.2714
     48  CB        -6.4570   28.5140   26.8230 C.3   206  SER206      0.2130
     49  OG        -5.8360   27.3700   27.3470 O.3   206  SER206     -0.2179
     50  N         -7.4200   29.0060   29.4040 N.am  207  LEU207     -0.1977
     51  CA        -7.7750   29.5000   30.7660 C.3   207  LEU207      0.1596
     52  C         -8.6490   30.7760   30.6940 C.2   207  LEU207      0.2287
     53  O         -9.4200   31.0770   31.6090 O.2   207  LEU207     -0.2864
     54  CB        -6.5040   29.7840   31.6190 C.3   207  LEU207      0.0297
     55  CG        -6.6330   30.4710   32.9790 C.3   207  LEU207      0.0022
     56  CD1       -7.3760   29.5270   33.9440 C.3   207  LEU207      0.0001
     57  CD2       -5.2040   30.9580   33.5380 C.3   207  LEU207      0.0001
     58  N        -11.0430   24.4820   28.7310 N.3   238  PRO238     -0.2116
     59  CA       -11.0300   23.0990   29.2600 C.3   238  PRO238      0.1372
     60  C        -12.3800   22.7380   29.9590 C.2   238  PRO238      0.2244
     61  O        -12.7440   21.5620   30.0670 O.2   238  PRO238     -0.2868
     62  CB        -9.8730   23.0920   30.2660 C.3   238  PRO238      0.0268
     63  CG        -9.7450   24.5480   30.7450 C.3   238  PRO238      0.0207
     64  CD       -10.1990   25.4180   29.5170 C.3   238  PRO238      0.0892
     65  N         -6.6150   20.8060   24.7960 N.3   256  VAL256     -0.1245
     66  CA        -7.1420   21.6160   25.9060 C.3   256  VAL256      0.1561
     67  C         -8.7030   21.6620   25.8950 C.2   256  VAL256      0.2260
     68  O         -9.3460   21.6530   26.9480 O.2   256  VAL256     -0.2867
     69  CB        -6.5910   23.0520   25.8510 C.3   256  VAL256      0.0252
     70  CG1       -7.0910   23.8880   27.0390 C.3   256  VAL256      0.0019
     71  CG2       -5.0570   23.0400   25.7710 C.3   256  VAL256      0.0019
     72  N         -3.3090   15.9240   26.0850 N.3   303  ILE303     -0.1245
     73  CA        -2.8800   17.2260   26.6280 C.3   303  ILE303      0.1561
     74  C         -1.4330   17.1780   27.2240 C.2   303  ILE303      0.2260
     75  O         -0.7420   18.1950   27.2780 O.2   303  ILE303     -0.2867
     76  CB        -3.9420   17.7530   27.6520 C.3   303  ILE303      0.0252
     77  CG1       -3.7700   19.2450   27.9570 C.3   303  ILE303      0.0019
     78  CG2       -4.0300   16.8700   28.9290 C.3   303  ILE303      0.0019
     79  CD1       -4.8870   19.8250   28.6920 C.3   303  ILE303      0.0001
     80  N         -0.2590   20.3390   21.0690 N.3   309  TRP309     -0.1241
     81  CA        -0.6640   21.7030   21.3910 C.3   309  TRP309      0.1605
     82  C         -0.6260   22.6840   20.2310 C.2   309  TRP309      0.2264
     83  O         -1.1670   23.8050   20.3400 O.2   309  TRP309     -0.2867
     84  CB         0.1500   22.2530   22.5710 C.3   309  TRP309      0.0550
     85  CG        -0.3120   21.7450   23.9130 C.ar  309  TRP309      0.0003
     86  CD1       -0.3060   20.4570   24.3490 C.ar  309  TRP309      0.0946
     87  CD2       -0.8430   22.5310   24.9920 C.ar  309  TRP309      0.0152
     88  NE1       -0.7870   20.3860   25.6290 N.ar  309  TRP309     -0.2442
     89  CE2       -1.1110   21.6500   26.0570 C.ar  309  TRP309      0.0810
     90  CE3       -1.1050   23.8980   25.1660 C.ar  309  TRP309      0.0012
     91  CZ2       -1.6580   22.0940   27.2940 C.ar  309  TRP309      0.0191
     92  CZ3       -1.6390   24.3330   26.3910 C.ar  309  TRP309      0.0001
     93  CH2       -1.9010   23.4370   27.4370 C.ar  309  TRP309      0.0015
     94  N         -3.8470   24.2830   19.3660 N.3   312  HIS312     -0.1241
     95  CA        -4.3540   25.1610   20.4080 C.3   312  HIS312      0.1621
     96  C         -4.0810   26.6330   20.1030 C.2   312  HIS312      0.2264
     97  O         -4.7750   27.4720   20.5960 O.2   312  HIS312     -0.2867
     98  CB        -3.7650   24.7460   21.7710 C.3   312  HIS312      0.0745
     99  CG        -4.2710   25.5410   22.9380 C.ar  312  HIS312      0.0817
    100  ND1       -5.5830   25.4850   23.3650 N.ar  312  HIS312     -0.2268
    101  CD2       -3.6360   26.3980   23.7780 C.ar  312  HIS312      0.1154
    102  CE1       -5.7330   26.2670   24.4210 C.ar  312  HIS312      0.1986
    103  NE2       -4.5730   26.8410   24.6810 N.ar  312  HIS312     -0.2212
@<TRIPOS>BOND
     1    94    95    1
     2    96    95    1
     3    96    97    2
     4    82    83    2
     5    82    81    1
     6    95    98    1
     7    80    81    1
     8    81    84    1
     9    98    99    1
    10    43    41   ar
    11    43    42   ar
    12    41    39   ar
    13    84    85    1
    14    99   100   ar
    15    99   101   ar
    16    42    40   ar
    17    39    40   ar
    18    39    38    1
    19     5     6    1
    20     5     2    1
    21   100   102   ar
    22     8     6   ar
    23     8    10   ar
    24     4     3    2
    25     3     2    1
    26   101   103   ar
    27    38    35    1
    28    85    86   ar
    29    85    87   ar
    30     6     7   ar
    31    10    11   ar
    32     2     1    1
    33    86    88   ar
    34   102   103   ar
    35    65    66    1
    36    87    90   ar
    37    87    89   ar
    38    35    34    1
    39    35    36    1
    40     7     9   ar
    41    11    12    1
    42    11     9   ar
    43    90    92   ar
    44    88    89   ar
    45    71    69    1
    46    69    66    1
    47    69    70    1
    48    67    66    1
    49    67    68    2
    50    89    91   ar
    51    72    73    1
    52    44    36   am
    53    44    45    1
    54    36    37    2
    55    92    93   ar
    56    73    74    1
    57    73    76    1
    58    48    45    1
    59    48    49    1
    60    45    46    1
    61    74    75    2
    62    91    93   ar
    63    25    24    1
    64    76    77    1
    65    76    78    1
    66    77    79    1
    67    24    21    1
    68    16    15    2
    69    46    47    2
    70    46    50   am
    71    58    59    1
    72    58    64    1
    73    59    60    1
    74    59    62    1
    75    15    20   am
    76    15    14    1
    77    50    51    1
    78    64    63    1
    79    21    20    1
    80    21    22    1
    81    13    14    1
    82    60    61    2
    83    22    23    2
    84    14    17    1
    85    62    63    1
    86    17    19    1
    87    17    18    1
    88    52    51    1
    89    52    53    2
    90    51    54    1
    91    54    55    1
    92    33    31   ar
    93    55    57    1
    94    55    56    1
    95    32    31   ar
    96    31    30    1
    97    30    27    1
    98    27    28    1
    99    27    26    1
   100    29    28    2
