@<TRIPOS>MOLECULE
tmp/3a70B01.pdb
 111 109 0 0 0
SMALL
GASTEIGER

@<TRIPOS>ATOM
      1  N         -3.8720   38.2720   24.1790 N.3    28  TYR28      -0.1241
      2  CA        -2.5640   37.6130   24.1210 C.3    28  TYR28       0.1605
      3  C         -1.4530   38.5040   23.5490 C.2    28  TYR28       0.2264
      4  O         -0.2870   38.1010   23.5000 O.2    28  TYR28      -0.2867
      5  CB        -2.6550   36.3510   23.2850 C.3    28  TYR28       0.0534
      6  CG        -3.1980   35.1310   23.9620 C.ar   28  TYR28      -0.0201
      7  CD1       -2.5750   34.5730   25.0870 C.ar   28  TYR28      -0.0009
      8  CD2       -4.2770   34.4460   23.4020 C.ar   28  TYR28      -0.0009
      9  CE1       -3.0640   33.3880   25.6730 C.ar   28  TYR28       0.0417
     10  CE2       -4.7670   33.2620   23.9660 C.ar   28  TYR28       0.0417
     11  CZ        -4.1840   32.7410   25.0990 C.ar   28  TYR28       0.1957
     12  OH        -4.6840   31.5470   25.5900 O.3    28  TYR28      -0.2866
     13  N          1.3810   37.1680   21.3210 N.3    31  LEU31      -0.1231
     14  CA         2.4450   36.2880   21.8660 C.3    31  LEU31       0.1693
     15  C          2.8340   35.1510   20.9280 C.2    31  LEU31       0.2592
     16  O          4.0330   34.8050   20.8480 O.2    31  LEU31      -0.2718
     17  CB         2.1410   35.7690   23.2940 C.3    31  LEU31       0.0284
     18  CG         3.2280   34.9910   24.0590 C.3    31  LEU31       0.0019
     19  CD1        4.4170   35.8890   24.3950 C.3    31  LEU31       0.0001
     20  CD2        2.6600   34.3560   25.2980 C.3    31  LEU31       0.0001
     21  N          1.8400   34.5550   20.2400 N.am   32  ASP32      -0.1974
     22  CA         2.1300   33.4120   19.3580 C.3    32  ASP32       0.1709
     23  C          2.4720   33.8490   17.9340 C.2    32  ASP32       0.2293
     24  O          2.4810   33.0390   17.0300 O.2    32  ASP32      -0.2864
     25  CB         1.0140   32.3540   19.3620 C.3    32  ASP32       0.1436
     26  CG        -0.1920   32.7320   18.4790 C.2    32  ASP32       0.3671
     27  OD1       -0.3990   33.8940   18.0840 O.co2  32  ASP32      -0.2456
     28  OD2       -0.9620   31.8440   18.1690 O.co2  32  ASP32      -0.2456
     29  N          5.4950   32.0730   16.5870 N.3    35  PHE35      -0.1241
     30  CA         5.1770   30.6710   16.3370 C.3    35  PHE35       0.1605
     31  C          4.3680   30.4510   15.0420 C.2    35  PHE35       0.2264
     32  O          4.7530   29.6170   14.2090 O.2    35  PHE35      -0.2867
     33  CB         4.5070   29.9570   17.5190 C.3    35  PHE35       0.0534
     34  CG         4.4680   28.4380   17.3410 C.ar   35  PHE35      -0.0203
     35  CD1        5.1480   27.6110   18.1850 C.ar   35  PHE35      -0.0042
     36  CD2        3.7480   27.8560   16.2850 C.ar   35  PHE35      -0.0042
     37  CE1        5.1190   26.2520   18.0050 C.ar   35  PHE35      -0.0003
     38  CE2        3.7200   26.4800   16.1150 C.ar   35  PHE35      -0.0003
     39  CZ         4.4300   25.6990   16.9800 C.ar   35  PHE35      -0.0000
     40  N          9.3070   30.9340   17.0100 N.3    55  ALA55      -0.1231
     41  CA         8.4220   31.0800   18.1710 C.3    55  ALA55       0.1694
     42  C          9.0600   31.9030   19.3120 C.2    55  ALA55       0.2591
     43  O          8.3840   32.6520   19.9740 O.2    55  ALA55      -0.2718
     44  CB         7.9750   29.7260   18.7080 C.3    55  ALA55       0.0304
     45  N         10.3640   31.7360   19.5220 N.am   56  LEU56      -0.1980
     46  CA        11.0860   32.4190   20.6170 C.3    56  LEU56       0.1596
     47  C         11.6330   33.7850   20.2130 C.2    56  LEU56       0.2287
     48  O         11.5420   34.7470   20.9720 O.2    56  LEU56      -0.2864
     49  CB        12.2430   31.5400   21.1040 C.3    56  LEU56       0.0297
     50  CG        11.7660   30.2220   21.6890 C.3    56  LEU56       0.0022
     51  CD1       12.9010   29.3000   21.7130 C.3    56  LEU56       0.0001
     52  CD2       11.2080   30.4540   23.1090 C.3    56  LEU56       0.0001
     53  N          8.4350   35.2320   21.4990 N.3    65  VAL65      -0.1245
     54  CA         8.1490   35.4050   22.9180 C.3    65  VAL65       0.1561
     55  C          9.0950   36.4410   23.6190 C.2    65  VAL65       0.2260
     56  O          8.7690   37.0430   24.6580 O.2    65  VAL65      -0.2867
     57  CB         8.2140   33.9880   23.4530 C.3    65  VAL65       0.0252
     58  CG1        9.2330   33.7640   24.5270 C.3    65  VAL65       0.0019
     59  CG2        6.7800   33.3350   23.5880 C.3    65  VAL65       0.0019
     60  N         -3.4300   31.0670   29.6900 N.3   142  THR142     -0.1203
     61  CA        -2.0760   30.9180   30.2010 C.3   142  THR142      0.1994
     62  C         -0.9890   31.6340   29.3720 C.2   142  THR142      0.2618
     63  O         -0.9830   31.5510   28.1970 O.2   142  THR142     -0.2717
     64  CB        -1.6960   29.4700   30.3090 C.3   142  THR142      0.1784
     65  OG1       -2.6110   28.7860   31.1370 O.3   142  THR142     -0.2211
     66  CG2       -0.3530   29.3080   30.7740 C.3   142  THR142      0.0376
     67  N         -0.0660   32.2640   30.0720 N.am  143  SER143     -0.1951
     68  CA         0.8960   33.2430   29.5690 C.3   143  SER143      0.1924
     69  C          0.6110   34.6460   30.1130 C.2   143  SER143      0.2314
     70  O         -0.4510   34.9160   30.5070 O.2   143  SER143     -0.2863
     71  CB         1.0050   33.2500   28.0340 C.3   143  SER143      0.2116
     72  OG        -0.0840   33.8570   27.4470 O.3   143  SER143     -0.2180
     73  N         -0.2590   20.3390   21.0690 N.3   309  TRP309     -0.1241
     74  CA        -0.6640   21.7030   21.3910 C.3   309  TRP309      0.1605
     75  C         -0.6260   22.6840   20.2310 C.2   309  TRP309      0.2264
     76  O         -1.1670   23.8050   20.3400 O.2   309  TRP309     -0.2867
     77  CB         0.1500   22.2530   22.5710 C.3   309  TRP309      0.0550
     78  CG        -0.3120   21.7450   23.9130 C.ar  309  TRP309      0.0003
     79  CD1       -0.3060   20.4570   24.3490 C.ar  309  TRP309      0.0946
     80  CD2       -0.8430   22.5310   24.9920 C.ar  309  TRP309      0.0152
     81  NE1       -0.7870   20.3860   25.6290 N.ar  309  TRP309     -0.2442
     82  CE2       -1.1110   21.6500   26.0570 C.ar  309  TRP309      0.0810
     83  CE3       -1.1050   23.8980   25.1660 C.ar  309  TRP309      0.0012
     84  CZ2       -1.6580   22.0940   27.2940 C.ar  309  TRP309      0.0191
     85  CZ3       -1.6390   24.3330   26.3910 C.ar  309  TRP309      0.0001
     86  CH2       -1.9010   23.4370   27.4370 C.ar  309  TRP309      0.0015
     87  N         -3.8470   24.2830   19.3660 N.3   312  HIS312     -0.1226
     88  CA        -4.3540   25.1610   20.4080 C.3   312  HIS312      0.1752
     89  C         -4.0810   26.6330   20.1030 C.2   312  HIS312      0.2596
     90  O         -4.7750   27.4720   20.5960 O.2   312  HIS312     -0.2718
     91  CB        -3.7650   24.7460   21.7710 C.3   312  HIS312      0.0759
     92  CG        -4.2710   25.5410   22.9380 C.ar  312  HIS312      0.0818
     93  ND1       -5.5830   25.4850   23.3650 N.ar  312  HIS312     -0.2268
     94  CD2       -3.6360   26.3980   23.7780 C.ar  312  HIS312      0.1154
     95  CE1       -5.7330   26.2670   24.4210 C.ar  312  HIS312      0.1986
     96  NE2       -4.5730   26.8410   24.6810 N.ar  312  HIS312     -0.2212
     97  N         -3.0780   26.9190   19.2720 N.am  313  LEU313     -0.1966
     98  CA        -2.6160   28.2540   19.0450 C.3   313  LEU313      0.1716
     99  C         -3.7230   29.1970   18.6570 C.2   313  LEU313      0.2495
    100  O         -4.5410   28.8810   17.8080 O.2   313  LEU313     -0.2727
    101  CB        -1.4990   28.3240   17.9830 C.3   313  LEU313      0.0311
    102  CG        -0.1180   27.8250   18.4060 C.3   313  LEU313      0.0022
    103  CD1        0.8760   28.2270   17.3180 C.3   313  LEU313      0.0001
    104  CD2        0.3010   28.3290   19.7970 C.3   313  LEU313      0.0001
    105  N         -3.7660   30.3430   19.3330 N.am  314  PRO314     -0.2504
    106  CA        -4.7820   31.3760   19.0780 C.3   314  PRO314      0.1487
    107  C         -4.7910   31.9130   17.6320 C.2   314  PRO314      0.2276
    108  O         -5.8530   32.1180   17.0880 O.2   314  PRO314     -0.2865
    109  CB        -4.4550   32.4830   20.0910 C.3   314  PRO314      0.0556
    110  CG        -3.1830   32.0310   20.8660 C.2   314  PRO314     -0.0078
    111  CD        -2.8250   30.6550   20.4380 C.2   314  PRO314      0.0634
@<TRIPOS>BOND
     1    32    31    2
     2    31    30    1
     3    38    36   ar
     4    38    39   ar
     5    36    34   ar
     6    30    29    1
     7    30    33    1
     8    39    37   ar
     9    40    41    1
    10    24    23    2
    11   108   107    2
    12   103   102    1
    13    34    33    1
    14    34    35   ar
    15   107   106    1
    16   100    99    2
    17    23    22    1
    18   101   102    1
    19   101    98    1
    20    37    35   ar
    21    27    26   ar
    22    28    26   ar
    23    41    44    1
    24    41    42    1
    25   102   104    1
    26    26    25    1
    27    99    98    1
    28    99   105   am
    29    98    97    1
    30   106   105    1
    31   106   109    1
    32    97    89   am
    33    42    45   am
    34    42    43    2
    35   105   111    1
    36    22    25    1
    37    22    21    1
    38    87    88    1
    39    45    46    1
    40   109   110    1
    41    89    88    1
    42    89    90    2
    43    47    46    1
    44    47    48    2
    45    75    76    2
    46    75    74    1
    47    21    15   am
    48    88    91    1
    49   111   110    2
    50    46    49    1
    51    16    15    2
    52    15    14    1
    53    73    74    1
    54    49    50    1
    55    13    14    1
    56    74    77    1
    57    53    54    1
    58    50    51    1
    59    50    52    1
    60    91    92    1
    61    14    17    1
    62    77    78    1
    63    54    57    1
    64    54    55    1
    65    92    93   ar
    66    92    94   ar
    67     5     6    1
    68     5     2    1
    69    17    18    1
    70    93    95   ar
    71     8     6   ar
    72     8    10   ar
    73    57    59    1
    74    57    58    1
    75     4     3    2
    76     3     2    1
    77    55    56    2
    78    94    96   ar
    79    78    79   ar
    80    78    80   ar
    81     6     7   ar
    82    10    11   ar
    83    18    19    1
    84    18    20    1
    85     2     1    1
    86    79    81   ar
    87    95    96   ar
    88    80    83   ar
    89    80    82   ar
    90     7     9   ar
    91    11    12    1
    92    11     9   ar
    93    83    85   ar
    94    81    82   ar
    95    82    84   ar
    96    85    86   ar
    97    84    86   ar
    98    72    71    1
    99    71    68    1
   100    63    62    2
   101    62    67   am
   102    62    61    1
   103    68    67    1
   104    68    69    1
   105    60    61    1
   106    69    70    2
   107    61    64    1
   108    64    66    1
   109    64    65    1
