@<TRIPOS>MOLECULE
tmp/3a71A00.pdb
 105 101 0 0 0
SMALL
GASTEIGER

@<TRIPOS>ATOM
      1  N         43.5730   32.8050   12.8460 N.3    79  TYR79      -0.1227
      2  CA        42.5010   33.7770   12.7480 C.3    79  TYR79       0.1736
      3  C         43.0590   35.2200   12.8120 C.2    79  TYR79       0.2595
      4  O         44.0330   35.5160   13.5090 O.2    79  TYR79      -0.2718
      5  CB        41.4680   33.6840   13.8630 C.3    79  TYR79       0.0548
      6  CG        40.5230   32.4880   13.8410 C.ar   79  TYR79      -0.0200
      7  CD1       40.4240   31.5860   12.7760 C.ar   79  TYR79      -0.0009
      8  CD2       39.7070   32.2610   14.9370 C.ar   79  TYR79      -0.0009
      9  CE1       39.5520   30.5140   12.8210 C.ar   79  TYR79       0.0417
     10  CE2       38.8240   31.2050   14.9920 C.ar   79  TYR79       0.0417
     11  CZ        38.7580   30.3260   13.9170 C.ar   79  TYR79       0.1957
     12  OH        37.8780   29.2780   13.9580 O.3    79  TYR79      -0.2866
     13  N         42.3840   36.1020   12.1060 N.am   80  GLN80      -0.1979
     14  CA        42.4120   37.5340   12.3440 C.3    80  GLN80       0.1601
     15  C         43.8060   38.1680   12.2010 C.2    80  GLN80       0.2287
     16  O         44.3040   38.8180   13.1140 O.2    80  GLN80      -0.2864
     17  CB        41.7980   37.8250   13.6980 C.3    80  GLN80       0.0394
     18  CG        40.3400   37.4290   13.7650 C.3    80  GLN80       0.0908
     19  CD        39.8880   36.7490   15.0470 C.2    80  GLN80       0.2608
     20  OE1       40.5290   36.8540   16.1030 O.2    80  GLN80      -0.2717
     21  NE2       38.7500   36.0840   14.9510 N.am   80  GLN80      -0.0878
     22  N         38.5610   29.5400   21.1270 N.3   138  ALA138     -0.1245
     23  CA        38.3190   30.3720   19.9540 C.3   138  ALA138      0.1562
     24  C         36.9460   30.1460   19.3530 C.2   138  ALA138      0.2260
     25  O         36.8190   29.8620   18.1420 O.2   138  ALA138     -0.2867
     26  CB        39.4310   30.0780   18.9500 C.3   138  ALA138      0.0290
     27  N         32.8940   32.1050   19.5720 N.3   140  PRO140     -0.2116
     28  CA        32.2060   33.3320   20.0490 C.3   140  PRO140      0.1372
     29  C         30.9910   33.0260   20.8910 C.2   140  PRO140      0.2244
     30  O         29.9260   33.5240   20.6520 O.2   140  PRO140     -0.2868
     31  CB        31.7630   34.0190   18.7680 C.3   140  PRO140      0.0268
     32  CG        31.4370   32.8460   17.8760 C.3   140  PRO140      0.0207
     33  CD        32.5550   31.8310   18.1620 C.3   140  PRO140      0.0892
     34  N         40.3920   38.4110   20.3720 N.3   148  TRP148     -0.1227
     35  CA        40.1450   38.3870   18.9320 C.3   148  TRP148      0.1737
     36  C         40.5310   39.6880   18.2430 C.2   148  TRP148      0.2595
     37  O         40.4500   40.7640   18.8500 O.2   148  TRP148     -0.2718
     38  CB        38.7200   38.2050   18.7130 C.3   148  TRP148      0.0564
     39  CG        37.7790   37.3070   19.3610 C.ar  148  TRP148      0.0003
     40  CD1       36.9160   37.6110   20.3390 C.ar  148  TRP148      0.0946
     41  CD2       37.5140   35.9300   19.0200 C.ar  148  TRP148      0.0152
     42  NE1       36.2140   36.5220   20.5930 N.ar  148  TRP148     -0.2442
     43  CE2       36.4770   35.4700   19.8320 C.ar  148  TRP148      0.0810
     44  CE3       38.0760   35.0580   18.1160 C.ar  148  TRP148      0.0012
     45  CZ2       35.9640   34.2130   19.7450 C.ar  148  TRP148      0.0191
     46  CZ3       37.5220   33.7860   18.0250 C.ar  148  TRP148      0.0001
     47  CH2       36.4860   33.3710   18.8300 C.ar  148  TRP148      0.0015
     48  N         40.8520   39.6320   16.9590 N.am  149  GLU149     -0.1979
     49  CA        40.6730   40.7580   16.0340 C.3   149  GLU149      0.1602
     50  C         41.5840   41.9640   16.2970 C.2   149  GLU149      0.2287
     51  O         41.1000   43.0970   16.4750 O.2   149  GLU149     -0.2864
     52  CB        39.2050   41.2120   15.9900 C.3   149  GLU149      0.0415
     53  CG        38.2400   40.1090   15.5300 C.3   149  GLU149      0.1163
     54  CD        36.8970   40.1070   16.2000 C.2   149  GLU149      0.3649
     55  OE1       36.5820   40.9560   17.0520 O.co2 149  GLU149     -0.2457
     56  OE2       36.1110   39.1620   15.8470 O.co2 149  GLU149     -0.2457
     57  N         31.1860   40.3290   25.7600 N.3   174  GLN174     -0.1245
     58  CA        32.4020   40.7150   25.0890 C.3   174  GLN174      0.1566
     59  C         32.5910   42.2060   25.3030 C.2   174  GLN174      0.2260
     60  O         31.6050   42.9600   25.4000 O.2   174  GLN174     -0.2867
     61  CB        32.3740   40.3690   23.5920 C.3   174  GLN174      0.0367
     62  CG        33.6770   40.6430   22.8460 C.3   174  GLN174      0.0905
     63  CD        33.6020   40.0750   21.4480 C.2   174  GLN174      0.2608
     64  OE1       33.0550   40.7680   20.5320 O.2   174  GLN174     -0.2717
     65  NE2       34.0900   38.9050   21.2750 N.am  174  GLN174     -0.0878
     66  N         27.5120   42.3200   22.8420 N.3   202  ARG202     -0.1245
     67  CA        28.7860   41.8680   22.2740 C.3   202  ARG202      0.1563
     68  C         29.2620   42.9000   21.2560 C.2   202  ARG202      0.2260
     69  O         29.2690   42.6640   20.0560 O.2   202  ARG202     -0.2867
     70  CB        28.6920   40.4640   21.6650 C.3   202  ARG202      0.0307
     71  CG        28.3520   39.3660   22.6550 C.3   202  ARG202      0.0489
     72  CD        28.1630   38.0000   21.9700 C.3   202  ARG202      0.2205
     73  NE        29.3600   37.6380   21.2570 N.pl3 202  ARG202     -0.0865
     74  CZ        30.4400   37.0700   21.7700 C.cat 202  ARG202      0.5346
     75  NH1       30.4680   36.6780   23.0370 N.pl3 202  ARG202      0.1354
     76  NH2       31.4650   36.8840   20.9950 N.pl3 202  ARG202      0.1354
     77  N         31.1550   46.7710   15.3530 N.3   221  GLU221     -0.1196
     78  CA        29.8250   46.1920   15.3650 C.3   221  GLU221      0.1783
     79  C         29.3250   46.1570   16.7910 C.2   221  GLU221      0.2306
     80  O         30.0870   45.8020   17.7160 O.2   221  GLU221     -0.2863
     81  CB        29.7770   44.7950   14.7290 C.2   221  GLU221      0.0071
     82  CG        30.5480   43.7160   15.4710 C.2   221  GLU221      0.0834
     83  CD        30.5140   42.3550   14.8610 C.2   221  GLU221      0.3877
     84  OE1       30.1930   42.2020   13.6410 O.co2 221  GLU221     -0.2406
     85  OE2       30.8650   41.3850   15.5960 O.co2 221  GLU221     -0.2406
     86  N         32.8260   39.0080    4.7130 N.3   312  TYR312     -0.1241
     87  CA        33.0860   39.1990    6.1340 C.3   312  TYR312      0.1605
     88  C         34.3330   40.0670    6.3150 C.2   312  TYR312      0.2264
     89  O         35.3920   39.7950    5.7310 O.2   312  TYR312     -0.2867
     90  CB        33.2390   37.8390    6.8080 C.3   312  TYR312      0.0534
     91  CG        33.3490   37.9490    8.3120 C.ar  312  TYR312     -0.0201
     92  CD1       32.2900   38.3480    9.0840 C.ar  312  TYR312     -0.0009
     93  CD2       34.5180   37.6210    8.9610 C.ar  312  TYR312     -0.0009
     94  CE1       32.3840   38.4420   10.4540 C.ar  312  TYR312      0.0417
     95  CE2       34.6250   37.7060   10.3350 C.ar  312  TYR312      0.0417
     96  CZ        33.5670   38.1210   11.1010 C.ar  312  TYR312      0.1957
     97  OH        33.6110   38.2110   12.4540 O.3   312  TYR312     -0.2866
     98  N         31.3220   34.0050    5.4730 N.3   335  LEU335     -0.1245
     99  CA        31.3490   33.0010    6.5120 C.3   335  LEU335      0.1561
    100  C         30.8420   31.6510    6.0090 C.2   335  LEU335      0.2260
    101  O         29.7820   31.6010    5.3130 O.2   335  LEU335     -0.2867
    102  CB        30.4540   33.4860    7.6710 C.3   335  LEU335      0.0270
    103  CG        30.9420   34.7230    8.4170 C.3   335  LEU335      0.0019
    104  CD1       29.8530   35.3250    9.3210 C.3   335  LEU335      0.0001
    105  CD2       32.2130   34.4060    9.2470 C.3   335  LEU335      0.0001
@<TRIPOS>BOND
     1    86    87    1
     2   101   100    2
     3    98    99    1
     4    89    88    2
     5   100    99    1
     6    87    88    1
     7    87    90    1
     8    99   102    1
     9    90    91    1
    10   102   103    1
    11    91    93   ar
    12    91    92   ar
    13   103   105    1
    14   103   104    1
    15    93    95   ar
    16    92    94   ar
    17    95    96   ar
    18    94    96   ar
    19    96    97    1
    20    13    14    1
    21    13     3   am
    22    15    14    1
    23    15    16    2
    24    14    17    1
    25     2     3    1
    26     2     1    1
    27     2     5    1
    28     7     9   ar
    29     7     6   ar
    30     3     4    2
    31     9    11   ar
    32    84    83   ar
    33    17    18    1
    34    18    19    1
    35     6     5    1
    36     6     8   ar
    37    11    12    1
    38    11    10   ar
    39    81    78    1
    40    81    82    2
    41    83    82    1
    42    83    85   ar
    43     8    10   ar
    44    21    19   am
    45    19    20    2
    46    77    78    1
    47    78    79    1
    48    53    52    1
    49    53    54    1
    50    56    54   ar
    51    52    49    1
    52    49    50    1
    53    49    48    1
    54    54    55   ar
    55    50    51    2
    56    79    80    2
    57    48    36   am
    58    32    33    1
    59    32    31    1
    60    46    44   ar
    61    46    47   ar
    62    44    41   ar
    63    25    24    2
    64    33    27    1
    65    36    37    2
    66    36    35    1
    67    38    35    1
    68    38    39    1
    69    31    28    1
    70    47    45   ar
    71    35    34    1
    72    26    23    1
    73    41    39   ar
    74    41    43   ar
    75    24    23    1
    76    39    40   ar
    77    27    28    1
    78    45    43   ar
    79    43    42   ar
    80    23    22    1
    81    28    29    1
    82    69    68    2
    83    40    42   ar
    84    64    63    2
    85    30    29    2
    86    76    74    1
    87    68    67    1
    88    73    74    2
    89    73    72    1
    90    65    63   am
    91    63    62    1
    92    70    67    1
    93    70    71    1
    94    74    75    1
    95    72    71    1
    96    67    66    1
    97    62    61    1
    98    61    58    1
    99    58    59    1
   100    58    57    1
   101    59    60    2
