@<TRIPOS>MOLECULE
tmp/3a72A00.pdb
 188 183 0 0 0
SMALL
GASTEIGER

@<TRIPOS>ATOM
      1  N         39.3630   33.4850    4.4870 N.3    22  LEU22      -0.1231
      2  CA        38.4970   34.3930    5.2220 C.3    22  LEU22       0.1693
      3  C         39.3270   35.5450    5.7620 C.2    22  LEU22       0.2592
      4  O         40.5470   35.3630    5.9440 O.2    22  LEU22      -0.2718
      5  CB        37.8620   33.6670    6.4490 C.3    22  LEU22       0.0284
      6  CG        36.5670   34.3010    6.9900 C.3    22  LEU22       0.0019
      7  CD1       35.3900   34.0590    6.0650 C.3    22  LEU22       0.0001
      8  CD2       36.2730   33.7480    8.3920 C.3    22  LEU22       0.0001
      9  N         38.7280   36.6810    6.0590 N.am   23  TYR23      -0.1976
     10  CA        39.3290   37.7150    6.8770 C.3    23  TYR23       0.1639
     11  C         40.4700   38.4170    6.1320 C.2    23  TYR23       0.2290
     12  O         41.6560   38.2640    6.4540 O.2    23  TYR23      -0.2864
     13  CB        39.7770   37.1690    8.2330 C.3    23  TYR23       0.0560
     14  CG        39.8400   38.2060    9.3350 C.ar   23  TYR23      -0.0198
     15  CD1       38.8540   38.2290   10.3280 C.ar   23  TYR23      -0.0009
     16  CD2       40.8400   39.1860    9.3800 C.ar   23  TYR23      -0.0009
     17  CE1       38.8680   39.1830   11.3550 C.ar   23  TYR23       0.0417
     18  CE2       40.8590   40.1370   10.4170 C.ar   23  TYR23       0.0417
     19  CZ        39.8870   40.1210   11.3720 C.ar   23  TYR23       0.1957
     20  OH        39.8840   41.0250   12.4270 O.3    23  TYR23      -0.2866
     21  N         43.2120   34.6250    6.5520 N.3    39  GLU39      -0.1245
     22  CA        43.1420   33.3220    7.1770 C.3    39  GLU39       0.1567
     23  C         43.1150   32.2470    6.0940 C.2    39  GLU39       0.2260
     24  O         42.2510   32.2810    5.1990 O.2    39  GLU39      -0.2867
     25  CB        41.8720   33.1710    8.0140 C.3    39  GLU39       0.0388
     26  CG        41.7650   34.1650    9.1760 C.3    39  GLU39       0.1160
     27  CD        40.4370   34.1760    9.8870 C.2    39  GLU39       0.3649
     28  OE1       39.5030   33.4380    9.4610 O.co2  39  GLU39      -0.2457
     29  OE2       40.2920   34.9820   10.8600 O.co2  39  GLU39      -0.2457
     30  N         43.0570   28.3690    5.2950 N.3    41  TYR41      -0.1241
     31  CA        42.5840   27.1170    5.9480 C.3    41  TYR41       0.1605
     32  C         43.1270   25.8880    5.2190 C.2    41  TYR41       0.2264
     33  O         42.4200   25.0480    4.6970 O.2    41  TYR41      -0.2867
     34  CB        41.0720   27.1080    6.0290 C.3    41  TYR41       0.0534
     35  CG        40.4700   28.1540    6.9350 C.ar   41  TYR41      -0.0201
     36  CD1       39.9710   27.8020    8.1740 C.ar   41  TYR41      -0.0009
     37  CD2       40.4040   29.5090    6.5580 C.ar   41  TYR41      -0.0009
     38  CE1       39.4120   28.7300    9.0430 C.ar   41  TYR41       0.0417
     39  CE2       39.8370   30.4410    7.4410 C.ar   41  TYR41       0.0417
     40  CZ        39.3660   30.0370    8.6720 C.ar   41  TYR41       0.1957
     41  OH        38.8020   30.9280    9.5540 O.3    41  TYR41      -0.2866
     42  N         43.7710   32.7240   12.8620 N.3    79  TYR79      -0.1227
     43  CA        42.6860   33.6880   12.7760 C.3    79  TYR79       0.1736
     44  C         43.2240   35.1470   12.8050 C.2    79  TYR79       0.2595
     45  O         44.1790   35.4650   13.5150 O.2    79  TYR79      -0.2718
     46  CB        41.7030   33.5760   13.9120 C.3    79  TYR79       0.0548
     47  CG        40.7260   32.4130   13.8870 C.ar   79  TYR79      -0.0200
     48  CD1       40.5710   31.5610   12.7840 C.ar   79  TYR79      -0.0009
     49  CD2       39.9210   32.1790   15.0150 C.ar   79  TYR79      -0.0009
     50  CE1       39.6470   30.5070   12.8210 C.ar   79  TYR79       0.0417
     51  CE2       39.0280   31.1560   15.0550 C.ar   79  TYR79       0.0417
     52  CZ        38.8950   30.3110   13.9440 C.ar   79  TYR79       0.1957
     53  OH        37.9670   29.2680   13.9440 O.3    79  TYR79      -0.2866
     54  N         42.5240   35.9860   12.0560 N.am   80  GLN80      -0.1979
     55  CA        42.5040   37.4270   12.2960 C.3    80  GLN80       0.1601
     56  C         43.8790   38.1020   12.1970 C.2    80  GLN80       0.2287
     57  O         44.3230   38.7940   13.0830 O.2    80  GLN80      -0.2864
     58  CB        41.8500   37.7040   13.6550 C.3    80  GLN80       0.0394
     59  CG        40.4100   37.2060   13.6740 C.3    80  GLN80       0.0908
     60  CD        39.9650   36.5100   14.9380 C.2    80  GLN80       0.2608
     61  OE1       40.5380   36.7240   16.0260 O.2    80  GLN80      -0.2717
     62  NE2       38.9210   35.7150   14.8260 N.am   80  GLN80      -0.0878
     63  N         38.6410   29.4030   21.1530 N.3   138  ALA138     -0.1231
     64  CA        38.3900   30.2340   19.9680 C.3   138  ALA138      0.1694
     65  C         37.0280   29.9920   19.3620 C.2   138  ALA138      0.2592
     66  O         36.9060   29.6950   18.1690 O.2   138  ALA138     -0.2718
     67  CB        39.4910   29.9800   18.9760 C.3   138  ALA138      0.0304
     68  N         35.9910   30.1610   20.1920 N.am  139  ARG139     -0.1966
     69  CA        34.6140   30.1600   19.6810 C.3   139  ARG139      0.1714
     70  C         33.8690   31.3510   20.3290 C.2   139  ARG139      0.2458
     71  O         34.0580   31.6250   21.5110 O.2   139  ARG139     -0.2730
     72  CB        33.8450   28.8760   20.0040 C.3   139  ARG139      0.0347
     73  CG        34.4040   27.6670   19.2900 C.3   139  ARG139      0.0492
     74  CD        33.5090   26.4500   19.5280 C.3   139  ARG139      0.2205
     75  NE        33.9990   25.2350   18.8380 N.pl3 139  ARG139     -0.0865
     76  CZ        34.8460   24.3590   19.3020 C.cat 139  ARG139      0.5346
     77  NH1       35.3470   24.4820   20.5160 N.pl3 139  ARG139      0.1354
     78  NH2       35.2140   23.3310   18.5360 N.pl3 139  ARG139      0.1354
     79  N         33.0220   32.0210   19.5590 N.am  140  PRO140     -0.2727
     80  CA        32.3370   33.2390   20.0290 C.3   140  PRO140      0.1402
     81  C         31.0810   32.9220   20.8090 C.2   140  PRO140      0.2269
     82  O         29.9950   33.3410   20.4390 O.2   140  PRO140     -0.2865
     83  CB        32.0770   34.0210   18.7660 C.3   140  PRO140      0.0296
     84  CG        31.7730   32.9060   17.7790 C.3   140  PRO140      0.0237
     85  CD        32.8460   31.8350   18.1090 C.3   140  PRO140      0.0939
     86  N         40.4340   38.2710   20.2960 N.3   148  TRP148     -0.1227
     87  CA        40.2170   38.2440   18.8560 C.3   148  TRP148      0.1737
     88  C         40.6120   39.5480   18.1740 C.2   148  TRP148      0.2595
     89  O         40.5040   40.6390   18.7610 O.2   148  TRP148     -0.2718
     90  CB        38.7780   38.0740   18.5910 C.3   148  TRP148      0.0564
     91  CG        37.8340   37.1640   19.2850 C.ar  148  TRP148      0.0003
     92  CD1       36.9510   37.4870   20.2690 C.ar  148  TRP148      0.0946
     93  CD2       37.5910   35.7770   18.9690 C.ar  148  TRP148      0.0152
     94  NE1       36.2420   36.3910   20.5740 N.ar  148  TRP148     -0.2442
     95  CE2       36.5550   35.3310   19.7940 C.ar  148  TRP148      0.0810
     96  CE3       38.1710   34.8850   18.0760 C.ar  148  TRP148      0.0012
     97  CZ2       36.0440   34.0580   19.7260 C.ar  148  TRP148      0.0191
     98  CZ3       37.6430   33.5990   17.9850 C.ar  148  TRP148      0.0001
     99  CH2       36.5880   33.2150   18.8130 C.ar  148  TRP148      0.0015
    100  N         40.9100   39.4800   16.8840 N.am  149  GLU149     -0.1979
    101  CA        40.7050   40.6230   15.9620 C.3   149  GLU149      0.1602
    102  C         41.5950   41.8440   16.2620 C.2   149  GLU149      0.2287
    103  O         41.0920   42.9630   16.4270 O.2   149  GLU149     -0.2864
    104  CB        39.2440   41.0040   15.9080 C.3   149  GLU149      0.0415
    105  CG        38.3430   39.8880   15.3680 C.3   149  GLU149      0.1163
    106  CD        36.9950   39.7950   16.0020 C.2   149  GLU149      0.3649
    107  OE1       36.6240   40.5240   16.9240 O.co2 149  GLU149     -0.2457
    108  OE2       36.1740   38.8750   15.5490 O.co2 149  GLU149     -0.2457
    109  N         31.2310   40.0690   25.7310 N.3   174  GLN174     -0.1245
    110  CA        32.4540   40.4930   25.0610 C.3   174  GLN174      0.1566
    111  C         32.6230   41.9850   25.3050 C.2   174  GLN174      0.2260
    112  O         31.6310   42.7070   25.4040 O.2   174  GLN174     -0.2867
    113  CB        32.4590   40.1360   23.5820 C.3   174  GLN174      0.0367
    114  CG        33.7890   40.3700   22.8760 C.3   174  GLN174      0.0905
    115  CD        33.7680   39.8710   21.4530 C.2   174  GLN174      0.2608
    116  OE1       33.2810   40.6470   20.5390 O.2   174  GLN174     -0.2717
    117  NE2       34.2270   38.7270   21.2060 N.am  174  GLN174     -0.0878
    118  N         27.5520   42.1260   22.8690 N.3   202  ARG202     -0.1245
    119  CA        28.8480   41.6880   22.3410 C.3   202  ARG202      0.1563
    120  C         29.3040   42.7200   21.3010 C.2   202  ARG202      0.2260
    121  O         29.2760   42.4920   20.0830 O.2   202  ARG202     -0.2867
    122  CB        28.7780   40.2580   21.7180 C.3   202  ARG202      0.0307
    123  CG        28.4630   39.2090   22.7690 C.3   202  ARG202      0.0489
    124  CD        28.2270   37.8040   22.1190 C.3   202  ARG202      0.2205
    125  NE        29.3920   37.3900   21.3840 N.pl3 202  ARG202     -0.0865
    126  CZ        30.4780   36.8580   21.8840 C.cat 202  ARG202      0.5346
    127  NH1       30.5420   36.4690   23.1390 N.pl3 202  ARG202      0.1354
    128  NH2       31.5030   36.6930   21.0880 N.pl3 202  ARG202      0.1354
    129  N         32.1700   44.2450   19.1390 N.3   204  GLY204     -0.1210
    130  CA        33.3370   43.5620   18.5970 C.3   204  GLY204      0.1956
    131  C         33.8680   44.2380   17.3660 C.2   204  GLY204      0.2611
    132  O         33.2390   45.0610   16.7050 O.2   204  GLY204     -0.2717
    133  N         35.0820   43.8060   16.9790 N.am  205  MET205     -0.1979
    134  CA        35.6970   44.0420   15.6960 C.3   205  MET205      0.1605
    135  C         36.0770   45.5020   15.4900 C.2   205  MET205      0.2287
    136  O         35.6130   46.1760   14.5870 O.2   205  MET205     -0.2864
    137  CB        34.8120   43.5510   14.5490 C.3   205  MET205      0.0413
    138  CG        34.3580   42.0990   14.7650 C.3   205  MET205      0.0598
    139  SD        33.6650   41.2850   13.3010 S.3   205  MET205     -0.1393
    140  CE        35.1830   40.8710   12.4270 C.3   205  MET205      0.0692
    141  N         31.1510   46.6070   15.3430 N.3   221  GLU221     -0.1245
    142  CA        29.8130   46.0250   15.3480 C.3   221  GLU221      0.1567
    143  C         29.3310   45.9950   16.7780 C.2   221  GLU221      0.2260
    144  O         30.0780   45.6290   17.7020 O.2   221  GLU221     -0.2867
    145  CB        29.7730   44.6250   14.7060 C.3   221  GLU221      0.0388
    146  CG        30.5860   43.5730   15.4700 C.3   221  GLU221      0.1160
    147  CD        30.5290   42.1790   14.8850 C.2   221  GLU221      0.3649
    148  OE1       30.1860   42.0110   13.6660 O.co2 221  GLU221     -0.2457
    149  OE2       30.8490   41.2420   15.6670 O.co2 221  GLU221     -0.2457
    150  N         23.7680   43.1260   14.7780 N.3   233  PHE233     -0.1241
    151  CA        25.1340   43.6640   14.8450 C.3   233  PHE233      0.1605
    152  C         25.2370   44.9750   14.0890 C.2   233  PHE233      0.2264
    153  O         26.1150   45.1300   13.2120 O.2   233  PHE233     -0.2867
    154  CB        26.1320   42.6410   14.2840 C.3   233  PHE233      0.0534
    155  CG        26.2800   41.3720   15.0750 C.ar  233  PHE233     -0.0203
    156  CD1       27.2040   41.3070   16.0800 C.ar  233  PHE233     -0.0042
    157  CD2       25.5730   40.2390   14.7570 C.ar  233  PHE233     -0.0042
    158  CE1       27.4370   40.1120   16.8070 C.ar  233  PHE233     -0.0003
    159  CE2       25.7600   39.0740   15.4700 C.ar  233  PHE233     -0.0003
    160  CZ        26.7320   39.0100   16.4470 C.ar  233  PHE233     -0.0000
    161  N         32.9010   38.9520    4.6270 N.3   312  TYR312     -0.1241
    162  CA        33.1510   39.1160    6.0420 C.3   312  TYR312      0.1605
    163  C         34.4030   39.9740    6.2790 C.2   312  TYR312      0.2264
    164  O         35.4700   39.7250    5.6950 O.2   312  TYR312     -0.2867
    165  CB        33.3780   37.7600    6.6600 C.3   312  TYR312      0.0534
    166  CG        33.5790   37.7360    8.1740 C.ar  312  TYR312     -0.0201
    167  CD1       32.6080   38.2020    9.0360 C.ar  312  TYR312     -0.0009
    168  CD2       34.7360   37.2360    8.6940 C.ar  312  TYR312     -0.0009
    169  CE1       32.7740   38.2030   10.3880 C.ar  312  TYR312      0.0417
    170  CE2       34.9150   37.1500   10.0660 C.ar  312  TYR312      0.0417
    171  CZ        33.9270   37.6250   10.9120 C.ar  312  TYR312      0.1957
    172  OH        34.0750   37.5030   12.2770 O.3   312  TYR312     -0.2866
    173  N         31.6160   33.9070    5.8940 N.3   335  LEU335     -0.1231
    174  CA        31.6820   32.8800    6.9250 C.3   335  LEU335      0.1693
    175  C         31.1300   31.5670    6.3810 C.2   335  LEU335      0.2591
    176  O         30.0560   31.5290    5.7610 O.2   335  LEU335     -0.2718
    177  CB        30.8210   33.3190    8.1330 C.3   335  LEU335      0.0284
    178  CG        31.4870   34.4430    8.9940 C.3   335  LEU335      0.0019
    179  CD1       30.4520   35.0530    9.9370 C.3   335  LEU335      0.0001
    180  CD2       32.6930   33.9470    9.7890 C.3   335  LEU335      0.0001
    181  N         31.8600   30.4780    6.5940 N.am  336  LEU336     -0.1980
    182  CA        31.4890   29.1580    6.1890 C.3   336  LEU336      0.1596
    183  C         31.2240   29.0630    4.6940 C.2   336  LEU336      0.2287
    184  O         30.5200   28.1500    4.2210 O.2   336  LEU336     -0.2864
    185  CB        30.2680   28.6590    6.9850 C.3   336  LEU336      0.0297
    186  CG        30.5360   28.6320    8.4910 C.3   336  LEU336      0.0022
    187  CD1       29.3240   28.1540    9.2480 C.3   336  LEU336      0.0001
    188  CD2       31.7260   27.7320    8.8570 C.3   336  LEU336      0.0001
@<TRIPOS>BOND
     1   184   183    2
     2     1     2    1
     3   161   162    1
     4   183   182    1
     5    33    32    2
     6    24    23    2
     7    32    31    1
     8     2     3    1
     9     2     5    1
    10    30    31    1
    11   164   163    2
    12   176   175    2
    13     3     4    2
    14     3     9   am
    15   173   174    1
    16    31    34    1
    17    34    35    1
    18   162   163    1
    19   162   165    1
    20     9    10    1
    21     7     6    1
    22    23    22    1
    23    11    12    2
    24    11    10    1
    25   182   181    1
    26   182   185    1
    27   175   181   am
    28   175   174    1
    29     5     6    1
    30    21    22    1
    31    37    35   ar
    32    37    39   ar
    33   165   166    1
    34    10    13    1
    35   174   177    1
    36    35    36   ar
    37   185   186    1
    38     6     8    1
    39    22    25    1
    40    39    40   ar
    41    25    26    1
    42   177   178    1
    43    36    38   ar
    44   166   168   ar
    45   166   167   ar
    46    13    14    1
    47   186   188    1
    48   186   187    1
    49    40    38   ar
    50    40    41    1
    51   168   170   ar
    52   178   180    1
    53   178   179    1
    54   167   169   ar
    55    26    27    1
    56    14    16   ar
    57    14    15   ar
    58    16    18   ar
    59    28    27   ar
    60    27    29   ar
    61   170   171   ar
    62    15    17   ar
    63   169   171   ar
    64    18    19   ar
    65   171   172    1
    66    17    19   ar
    67    19    20    1
    68    54    55    1
    69    54    44   am
    70    56    55    1
    71    56    57    2
    72    55    58    1
    73   140   139    1
    74    43    44    1
    75    43    42    1
    76    43    46    1
    77    48    50   ar
    78    48    47   ar
    79    44    45    2
    80    50    52   ar
    81   153   152    2
    82   139   138    1
    83    58    59    1
    84   148   147   ar
    85    59    60    1
    86    47    46    1
    87    47    49   ar
    88    52    53    1
    89    52    51   ar
    90   152   151    1
    91   154   151    1
    92   154   155    1
    93   137   138    1
    94   137   134    1
    95   136   135    2
    96   145   142    1
    97   145   146    1
    98   157   155   ar
    99   157   159   ar
   100   150   151    1
   101    62    60   am
   102   147   146    1
   103   147   149   ar
   104    60    61    2
   105    49    51   ar
   106   155   156   ar
   107   141   142    1
   108   142   143    1
   109   105   104    1
   110   105   106    1
   111   159   160   ar
   112   135   134    1
   113   108   106   ar
   114   134   133    1
   115   104   101    1
   116   101   102    1
   117   101   100    1
   118   106   107   ar
   119   156   158   ar
   120   102   103    2
   121   160   158   ar
   122   132   131    2
   123   143   144    2
   124   100    88   am
   125   133   131   am
   126   131   130    1
   127    84    85    1
   128    84    83    1
   129    98    96   ar
   130    98    99   ar
   131    96    93   ar
   132    85    79    1
   133    66    65    2
   134    88    89    2
   135    88    87    1
   136    78    76    1
   137    90    87    1
   138    90    91    1
   139   130   129    1
   140    83    80    1
   141    99    97   ar
   142    75    76    2
   143    75    74    1
   144    87    86    1
   145    93    91   ar
   146    93    95   ar
   147    67    64    1
   148    91    92   ar
   149    73    74    1
   150    73    72    1
   151    76    77    1
   152    65    64    1
   153    65    68   am
   154    79    80    1
   155    79    70   am
   156    69    72    1
   157    69    68    1
   158    69    70    1
   159    97    95   ar
   160    95    94   ar
   161    64    63    1
   162    80    81    1
   163   121   120    2
   164    92    94   ar
   165    70    71    2
   166    82    81    2
   167   116   115    2
   168   128   126    1
   169   117   115   am
   170   120   119    1
   171   125   126    2
   172   125   124    1
   173   115   114    1
   174   122   119    1
   175   122   123    1
   176   126   127    1
   177   124   123    1
   178   119   118    1
   179   114   113    1
   180   113   110    1
   181   110   111    1
   182   110   109    1
   183   111   112    2
