@<TRIPOS>MOLECULE
tmp/3a73B06.pdb
 187 179 0 0 0
SMALL
GASTEIGER

@<TRIPOS>ATOM
      1  N          1.7850   30.8630  -37.7660 N.3   114  LEU114     -0.1245
      2  CA         3.0730   31.3050  -38.3330 C.3   114  LEU114      0.1561
      3  C          3.7650   30.1450  -38.9580 C.2   114  LEU114      0.2260
      4  O          4.1220   29.1870  -38.2710 O.2   114  LEU114     -0.2867
      5  CB         4.0050   31.8650  -37.2840 C.3   114  LEU114      0.0270
      6  CG         3.7620   33.3300  -36.9700 C.3   114  LEU114      0.0019
      7  CD1        4.7400   33.7950  -35.8660 C.3   114  LEU114      0.0001
      8  CD2        3.8370   34.1840  -38.2610 C.3   114  LEU114      0.0001
      9  N          7.0530   28.7450  -40.4770 N.3   116  ARG116     -0.1231
     10  CA         8.5170   28.8800  -40.5740 C.3   116  ARG116      0.1679
     11  C          8.9200   28.9000  -42.0440 C.2   116  ARG116      0.2434
     12  O          8.7140   27.9040  -42.7610 O.2   116  ARG116     -0.2733
     13  CB         9.1770   27.6450  -39.9140 C.3   116  ARG116      0.0321
     14  CG        10.7260   27.6190  -39.8440 C.3   116  ARG116      0.0489
     15  CD        11.2280   26.8190  -38.5760 C.3   116  ARG116      0.2205
     16  NE        12.1290   25.6860  -38.8310 N.pl3 116  ARG116     -0.0865
     17  CZ        11.7580   24.4020  -38.8800 C.cat 116  ARG116      0.5346
     18  NH1       12.6560   23.4460  -39.1110 N.pl3 116  ARG116      0.1354
     19  NH2       10.4860   24.0520  -38.7050 N.pl3 116  ARG116      0.1354
     20  N          9.4960   30.0290  -42.5080 N.am  117  PRO117     -0.2729
     21  CA         9.8730   30.0360  -43.9390 C.3   117  PRO117      0.1401
     22  C         11.1150   29.1910  -44.1470 C.2   117  PRO117      0.2269
     23  O         11.6010   28.5710  -43.1990 O.2   117  PRO117     -0.2865
     24  CB        10.1420   31.5230  -44.2450 C.3   117  PRO117      0.0296
     25  CG         9.5300   32.3160  -43.0130 C.3   117  PRO117      0.0237
     26  CD         9.6940   31.3440  -41.8540 C.3   117  PRO117      0.0939
     27  N         14.7440   33.2840  -44.7510 N.3   122  MET122     -0.1245
     28  CA        14.9330   33.8920  -43.4330 C.3   122  MET122      0.1570
     29  C         16.3470   34.4950  -43.3970 C.2   122  MET122      0.2261
     30  O         16.5170   35.6720  -43.1200 O.2   122  MET122     -0.2867
     31  CB        14.7840   32.8580  -42.2930 C.3   122  MET122      0.0387
     32  CG        13.3250   32.4150  -41.9210 C.3   122  MET122      0.0595
     33  SD        13.2260   31.2110  -40.5170 S.3   122  MET122     -0.1393
     34  CE        14.2850   29.8570  -40.9940 C.3   122  MET122      0.0692
     35  N         13.1240   42.2960  -39.7240 N.3   133  PHE133     -0.1227
     36  CA        12.8410   40.8480  -39.7240 C.3   133  PHE133      0.1736
     37  C         12.6170   40.3830  -38.3050 C.2   133  PHE133      0.2595
     38  O         11.6630   39.6540  -37.9990 O.2   133  PHE133     -0.2718
     39  CB        14.0170   40.0640  -40.3420 C.3   133  PHE133      0.0547
     40  CG        13.9590   38.5560  -40.1320 C.ar  133  PHE133     -0.0202
     41  CD1       13.2580   37.7480  -41.0070 C.ar  133  PHE133     -0.0042
     42  CD2       14.6340   37.9610  -39.0610 C.ar  133  PHE133     -0.0042
     43  CE1       13.2200   36.3720  -40.8280 C.ar  133  PHE133     -0.0003
     44  CE2       14.5970   36.6030  -38.8710 C.ar  133  PHE133     -0.0003
     45  CZ        13.8920   35.7980  -39.7560 C.ar  133  PHE133     -0.0000
     46  N         13.5140   40.7960  -37.4270 N.am  134  LEU134     -0.1980
     47  CA        13.3630   40.4690  -36.0040 C.3   134  LEU134      0.1596
     48  C         12.0340   40.9920  -35.4110 C.2   134  LEU134      0.2287
     49  O         11.2630   40.2270  -34.8430 O.2   134  LEU134     -0.2864
     50  CB        14.5720   41.0080  -35.2180 C.3   134  LEU134      0.0297
     51  CG        15.7720   40.0580  -35.1250 C.3   134  LEU134      0.0022
     52  CD1       15.9140   39.1820  -36.3700 C.3   134  LEU134      0.0001
     53  CD2       17.0670   40.8030  -34.8070 C.3   134  LEU134      0.0001
     54  N          8.6510   39.5810  -36.4290 N.3   137  TYR137     -0.1227
     55  CA         8.4070   38.3170  -35.7700 C.3   137  TYR137      0.1736
     56  C          8.1310   38.5140  -34.2930 C.2   137  TYR137      0.2595
     57  O          7.2700   37.8520  -33.7560 O.2   137  TYR137     -0.2718
     58  CB         9.4960   37.2760  -36.0060 C.3   137  TYR137      0.0548
     59  CG         9.0710   36.2730  -37.0560 C.ar  137  TYR137     -0.0200
     60  CD1        8.9040   36.6650  -38.3750 C.ar  137  TYR137     -0.0009
     61  CD2        8.7940   34.9520  -36.7240 C.ar  137  TYR137     -0.0009
     62  CE1        8.4860   35.7650  -39.3460 C.ar  137  TYR137      0.0417
     63  CE2        8.3880   34.0410  -37.6980 C.ar  137  TYR137      0.0417
     64  CZ         8.2440   34.4680  -38.9960 C.ar  137  TYR137      0.1957
     65  OH         7.8310   33.6030  -39.9770 O.3   137  TYR137     -0.2866
     66  N          8.8120   39.4670  -33.6540 N.am  138  LEU138     -0.1980
     67  CA         8.4700   39.7730  -32.2740 C.3   138  LEU138      0.1596
     68  C          6.9800   40.2040  -32.1940 C.2   138  LEU138      0.2287
     69  O          6.2000   39.7120  -31.3610 O.2   138  LEU138     -0.2864
     70  CB         9.4080   40.8410  -31.7290 C.3   138  LEU138      0.0297
     71  CG         9.3550   41.1830  -30.2520 C.3   138  LEU138      0.0022
     72  CD1        9.3550   39.9030  -29.4160 C.3   138  LEU138      0.0001
     73  CD2       10.5200   42.1160  -29.8960 C.3   138  LEU138      0.0001
     74  N          4.6340   37.2010  -32.8480 N.3   141  ILE141     -0.1245
     75  CA         4.5560   36.2770  -31.7210 C.3   141  ILE141      0.1561
     76  C          3.7690   36.9200  -30.6200 C.2   141  ILE141      0.2260
     77  O          2.9270   36.2940  -30.0080 O.2   141  ILE141     -0.2867
     78  CB         5.9220   35.9350  -31.1640 C.3   141  ILE141      0.0252
     79  CG1        6.7190   35.1220  -32.1940 C.3   141  ILE141      0.0019
     80  CG2        5.7220   35.0550  -29.9250 C.3   141  ILE141      0.0019
     81  CD1        6.0060   33.9150  -32.5760 C.3   141  ILE141      0.0001
     82  N          0.3190   35.7790  -28.4220 N.3   145  HIS145     -0.1241
     83  CA         0.5400   35.2990  -27.0530 C.3   145  HIS145      0.1621
     84  C          0.5090   36.4940  -26.0970 C.2   145  HIS145      0.2264
     85  O          1.4520   36.7370  -25.3720 O.2   145  HIS145     -0.2867
     86  CB         1.8930   34.5440  -26.9390 C.3   145  HIS145      0.0745
     87  CG         1.9950   33.3180  -27.8200 C.ar  145  HIS145      0.0817
     88  ND1        1.7610   32.0380  -27.3580 N.ar  145  HIS145     -0.2268
     89  CD2        2.3420   33.1790  -29.1270 C.ar  145  HIS145      0.1154
     90  CE1        1.9240   31.1680  -28.3440 C.ar  145  HIS145      0.1986
     91  NE2        2.2630   31.8330  -29.4340 N.ar  145  HIS145     -0.2212
     92  N          2.0060   36.4820  -22.6490 N.3   148  PHE148     -0.1241
     93  CA         3.3890   36.0410  -22.4390 C.3   148  PHE148      0.1605
     94  C          4.0920   37.2150  -21.8190 C.2   148  PHE148      0.2264
     95  O          4.0960   38.3230  -22.3840 O.2   148  PHE148     -0.2867
     96  CB         4.0600   35.6330  -23.7320 C.3   148  PHE148      0.0534
     97  CG         5.2090   34.6590  -23.5500 C.ar  148  PHE148     -0.0203
     98  CD1        6.4010   35.0640  -23.0100 C.ar  148  PHE148     -0.0042
     99  CD2        5.0920   33.3430  -23.9750 C.ar  148  PHE148     -0.0042
    100  CE1        7.4210   34.1920  -22.8560 C.ar  148  PHE148     -0.0003
    101  CE2        6.1360   32.4620  -23.8210 C.ar  148  PHE148     -0.0003
    102  CZ         7.3060   32.8950  -23.2620 C.ar  148  PHE148     -0.0000
    103  N          9.5670   37.1620  -23.3130 N.3   153  LEU153     -0.1245
    104  CA         9.5130   37.1260  -24.7590 C.3   153  LEU153      0.1561
    105  C         10.7370   37.8210  -25.3360 C.2   153  LEU153      0.2260
    106  O         11.3230   37.3570  -26.3090 O.2   153  LEU153     -0.2867
    107  CB         8.3270   37.9420  -25.2340 C.3   153  LEU153      0.0270
    108  CG         7.0780   37.2750  -25.6910 C.3   153  LEU153      0.0019
    109  CD1        6.3200   38.3600  -26.3780 C.3   153  LEU153      0.0001
    110  CD2        7.4230   36.1270  -26.6120 C.3   153  LEU153      0.0001
    111  N         13.7610   35.5040  -25.1760 N.3   156  PHE156     -0.1227
    112  CA        13.8250   34.5020  -26.2340 C.3   156  PHE156      0.1736
    113  C         14.2390   35.1290  -27.5870 C.2   156  PHE156      0.2595
    114  O         15.0700   34.5890  -28.3000 O.2   156  PHE156     -0.2718
    115  CB        12.4790   33.7520  -26.3270 C.3   156  PHE156      0.0547
    116  CG        12.2990   32.6920  -25.2630 C.ar  156  PHE156     -0.0202
    117  CD1       13.0070   31.4990  -25.3360 C.ar  156  PHE156     -0.0042
    118  CD2       11.4480   32.8970  -24.1830 C.ar  156  PHE156     -0.0042
    119  CE1       12.8750   30.5080  -24.3490 C.ar  156  PHE156     -0.0003
    120  CE2       11.3120   31.9020  -23.1600 C.ar  156  PHE156     -0.0003
    121  CZ        12.0280   30.7020  -23.2600 C.ar  156  PHE156     -0.0000
    122  N         13.6480   36.2840  -27.8930 N.am  157  ALA157     -0.1980
    123  CA        13.8620   36.9820  -29.1590 C.3   157  ALA157      0.1597
    124  C         15.3310   37.1660  -29.3070 C.2   157  ALA157      0.2287
    125  O         15.8610   37.1540  -30.4280 O.2   157  ALA157     -0.2864
    126  CB        13.1720   38.3710  -29.1480 C.3   157  ALA157      0.0319
    127  N         16.9760   33.9260  -30.5760 N.3   160  TYR160     -0.1241
    128  CA        16.7100   33.7220  -31.9990 C.3   160  TYR160      0.1605
    129  C         17.6940   34.5000  -32.8230 C.2   160  TYR160      0.2264
    130  O         18.2080   33.9960  -33.8220 O.2   160  TYR160     -0.2867
    131  CB        15.3130   34.1850  -32.3750 C.3   160  TYR160      0.0534
    132  CG        14.2480   33.1370  -32.1200 C.ar  160  TYR160     -0.0201
    133  CD1       13.4980   33.1300  -30.9230 C.ar  160  TYR160     -0.0009
    134  CD2       13.9860   32.1260  -33.0650 C.ar  160  TYR160     -0.0009
    135  CE1       12.5160   32.1620  -30.7070 C.ar  160  TYR160      0.0417
    136  CE2       13.0030   31.1460  -32.8250 C.ar  160  TYR160      0.0417
    137  CZ        12.2840   31.1750  -31.6630 C.ar  160  TYR160      0.1957
    138  OH        11.2820   30.2060  -31.4460 O.3   160  TYR160     -0.2866
    139  N         20.4260   33.2880  -35.4900 N.3   164  PHE164     -0.1241
    140  CA        20.4490   33.7520  -36.8490 C.3   164  PHE164      0.1605
    141  C         21.8560   34.1890  -37.2840 C.2   164  PHE164      0.2264
    142  O         22.3660   33.7630  -38.3380 O.2   164  PHE164     -0.2867
    143  CB        19.3800   34.8390  -37.0600 C.3   164  PHE164      0.0534
    144  CG        17.9930   34.2800  -37.3630 C.ar  164  PHE164     -0.0203
    145  CD1       17.7260   33.6530  -38.5690 C.ar  164  PHE164     -0.0042
    146  CD2       16.9740   34.3800  -36.4460 C.ar  164  PHE164     -0.0042
    147  CE1       16.4650   33.1410  -38.8450 C.ar  164  PHE164     -0.0003
    148  CE2       15.7140   33.8790  -36.7230 C.ar  164  PHE164     -0.0003
    149  CZ        15.4620   33.2520  -37.9240 C.ar  164  PHE164     -0.0000
    150  N         16.0060   26.3460  -33.9530 N.3   181  LEU181     -0.1245
    151  CA        14.6770   26.9440  -34.0280 C.3   181  LEU181      0.1561
    152  C         13.6950   25.9760  -33.3900 C.2   181  LEU181      0.2260
    153  O         12.8870   26.3400  -32.5520 O.2   181  LEU181     -0.2867
    154  CB        14.3110   27.2700  -35.4880 C.3   181  LEU181      0.0270
    155  CG        15.2710   28.3060  -36.1150 C.3   181  LEU181      0.0019
    156  CD1       15.0620   28.5730  -37.6080 C.3   181  LEU181      0.0001
    157  CD2       15.2040   29.5970  -35.3460 C.3   181  LEU181      0.0001
    158  N         11.6940   26.7690  -30.1500 N.3   185  ARG185     -0.1245
    159  CA        10.2430   26.6100  -30.1360 C.3   185  ARG185      0.1563
    160  C          9.7560   25.7630  -28.9300 C.2   185  ARG185      0.2260
    161  O          8.8610   26.1570  -28.2040 O.2   185  ARG185     -0.2867
    162  CB         9.7900   25.9480  -31.4310 C.3   185  ARG185      0.0307
    163  CG         8.3340   26.1950  -31.7300 C.3   185  ARG185      0.0489
    164  CD         7.9530   25.4360  -32.9440 C.3   185  ARG185      0.2205
    165  NE         8.1590   24.0150  -32.7180 N.pl3 185  ARG185     -0.0865
    166  CZ         8.5090   23.1550  -33.6660 C.cat 185  ARG185      0.5346
    167  NH1        8.6640   21.8710  -33.3690 N.pl3 185  ARG185      0.1354
    168  NH2        8.7200   23.5850  -34.9040 N.pl3 185  ARG185      0.1354
    169  N         10.0590   27.9030  -25.9050 N.3   188  GLY188     -0.1210
    170  CA         9.0030   28.9150  -25.9740 C.3   188  GLY188      0.1956
    171  C          7.6540   28.3340  -25.5930 C.2   188  GLY188      0.2611
    172  O          6.9600   28.8180  -24.6940 O.2   188  GLY188     -0.2717
    173  N          7.2670   27.3290  -26.3550 N.am  189  LYS189     -0.1979
    174  CA         6.2140   26.4060  -26.0170 C.3   189  LYS189      0.1596
    175  C          6.1300   26.1710  -24.5020 C.2   189  LYS189      0.2287
    176  O          5.1190   26.5090  -23.8510 O.2   189  LYS189     -0.2864
    177  CB         6.5570   25.0900  -26.6950 C.3   189  LYS189      0.0298
    178  CG         5.3990   24.1290  -26.9640 C.3   189  LYS189      0.0038
    179  CD         5.9520   22.7940  -27.4610 C.3   189  LYS189      0.0206
    180  CE         5.7060   22.5950  -28.9630 C.3   189  LYS189      0.1093
    181  NZ         5.6820   23.9380  -29.6290 N.3   189  LYS189     -0.1314
    182  N          5.6160   29.4160  -22.2640 N.3   192  SER192     -0.1217
    183  CA         4.2840   29.9140  -22.4990 C.3   192  SER192      0.1889
    184  C          3.3020   29.0690  -21.7150 C.2   192  SER192      0.2288
    185  O          2.2690   29.5600  -21.2470 O.2   192  SER192     -0.2866
    186  CB         3.9920   29.7690  -24.0020 C.3   192  SER192      0.2089
    187  OG         2.7180   30.2990  -24.3270 O.3   192  SER192     -0.2183
@<TRIPOS>BOND
     1    27    28    1
     2    24    21    1
     3    24    25    1
     4    22    21    1
     5    22    23    2
     6    21    20    1
     7    28    29    1
     8    28    31    1
     9    29    30    2
    10    25    26    1
    11    12    11    2
    12    20    11   am
    13    20    26    1
    14    31    32    1
    15    11    10    1
    16    32    33    1
    17    41    43   ar
    18    41    40   ar
    19    34    33    1
    20    43    45   ar
    21    10     9    1
    22    10    13    1
    23    39    40    1
    24    39    36    1
    25    40    42   ar
    26    65    64    1
    27    13    14    1
    28    14    15    1
    29    45    44   ar
    30    35    36    1
    31    36    37    1
    32    62    64   ar
    33    62    60   ar
    34    18    17    1
    35    42    44   ar
    36    64    63   ar
    37     3     2    1
    38     3     4    2
    39    17    16    2
    40    17    19    1
    41   147   145   ar
    42   147   149   ar
    43    16    15    1
    44   145   144   ar
    45    60    59   ar
    46   142   141    2
    47     2     1    1
    48     2     5    1
    49    37    38    2
    50    37    46   am
    51     8     6    1
    52   149   148   ar
    53    63    61   ar
    54   156   155    1
    55    46    47    1
    56   144   143    1
    57   144   146   ar
    58   141   140    1
    59     5     6    1
    60   143   140    1
    61    59    61   ar
    62    59    58    1
    63     6     7    1
    64   140   139    1
    65   148   146   ar
    66    54    55    1
    67    52    51    1
    68   155   154    1
    69   155   157    1
    70    58    55    1
    71    47    48    1
    72    47    50    1
    73    55    56    1
    74   154   151    1
    75    48    49    2
    76    50    51    1
    77    51    53    1
    78   168   166    1
    79    56    57    2
    80    56    66   am
    81   151   150    1
    82   151   152    1
    83   130   129    2
    84   166   167    1
    85   166   165    2
    86    66    67    1
    87   152   153    2
    88   134   136   ar
    89   134   132   ar
    90   164   165    1
    91   164   163    1
    92    74    75    1
    93   136   137   ar
    94   129   128    1
    95    81    79    1
    96   131   132    1
    97   131   128    1
    98    67    68    1
    99    67    70    1
   100    68    69    2
   101    79    78    1
   102   132   133   ar
   103   128   127    1
   104   163   162    1
   105    70    71    1
   106    75    78    1
   107    75    76    1
   108   137   138    1
   109   137   135   ar
   110   162   159    1
   111    78    80    1
   112   133   135   ar
   113    76    77    2
   114   125   124    2
   115    71    73    1
   116    71    72    1
   117   158   159    1
   118   159   160    1
   119   181   180    1
   120    91    89   ar
   121    91    90   ar
   122   124   123    1
   123   123   126    1
   124   123   122    1
   125    89    87   ar
   126   180   179    1
   127   160   161    2
   128    82    83    1
   129    90    88   ar
   130   114   113    2
   131   122   113   am
   132    87    88   ar
   133    87    86    1
   134   113   112    1
   135   179   178    1
   136    83    86    1
   137    83    84    1
   138   178   177    1
   139   177   174    1
   140   110   108    1
   141   109   108    1
   142   173   174    1
   143   173   171   am
   144   115   112    1
   145   115   116    1
   146   106   105    2
   147   112   111    1
   148    84    85    2
   149   174   175    1
   150   170   169    1
   151   170   171    1
   152   108   107    1
   153   171   172    2
   154   117   116   ar
   155   117   119   ar
   156   105   104    1
   157   116   118   ar
   158   107   104    1
   159   104   103    1
   160   175   176    2
   161   119   121   ar
   162   187   186    1
   163   118   120   ar
   164   186   183    1
   165    99   101   ar
   166    99    97   ar
   167   101   102   ar
   168    96    97    1
   169    96    93    1
   170    97    98   ar
   171   102   100   ar
   172   121   120   ar
   173    98   100   ar
   174    92    93    1
   175   183   182    1
   176   183   184    1
   177    93    94    1
   178    95    94    2
   179   184   185    2
