@<TRIPOS>MOLECULE
tmp/3a73A07.pdb
 137 131 0 0 0
SMALL
GASTEIGER

@<TRIPOS>ATOM
      1  N         10.9950   30.3400  -65.0890 N.3   107  ASP107     -0.1225
      2  CA        11.8910   31.4430  -65.4110 C.3   107  ASP107      0.1805
      3  C         11.7140   32.6460  -64.4630 C.2   107  ASP107      0.2598
      4  O         12.5630   33.5260  -64.4020 O.2   107  ASP107     -0.2718
      5  CB        11.6030   31.8330  -66.8670 C.3   107  ASP107      0.1424
      6  CG        12.4550   32.9820  -67.3200 C.2   107  ASP107      0.3668
      7  OD1       13.1660   33.5010  -66.4420 O.co2 107  ASP107     -0.2456
      8  OD2       12.4360   33.3640  -68.5210 O.co2 107  ASP107     -0.2456
      9  N         10.6110   32.6430  -63.7230 N.am  108  ASN108     -0.1961
     10  CA        10.3950   33.6130  -62.6630 C.3   108  ASN108      0.1804
     11  C         10.8970   33.0240  -61.3510 C.2   108  ASN108      0.2463
     12  O         10.5420   33.4880  -60.2680 O.2   108  ASN108     -0.2730
     13  CB         8.9140   33.9730  -62.5520 C.3   108  ASN108      0.1195
     14  CG         8.6920   35.4500  -62.2910 C.2   108  ASN108      0.2630
     15  OD1        7.6650   36.0120  -62.6710 O.2   108  ASN108     -0.2716
     16  ND2        9.6570   36.0870  -61.6380 N.am  108  ASN108     -0.0877
     17  N         11.7270   31.9900  -61.4680 N.am  109  PRO109     -0.2716
     18  CA        12.2670   31.2910  -60.3010 C.3   109  PRO109      0.1536
     19  C         11.5370   31.6770  -59.0220 C.2   109  PRO109      0.2599
     20  O         10.7540   30.8870  -58.4940 O.2   109  PRO109     -0.2715
     21  CB        13.7120   31.7820  -60.2530 C.3   109  PRO109      0.0310
     22  CG        14.0640   32.0430  -61.6920 C.3   109  PRO109      0.0237
     23  CD        12.7790   32.2980  -62.4530 C.3   109  PRO109      0.0939
     24  N         11.7940   32.8850  -58.5350 N.am  110  ASN110     -0.1959
     25  CA        11.1480   33.3730  -57.3230 C.3   110  ASN110      0.1819
     26  C         12.0190   33.1780  -56.0860 C.2   110  ASN110      0.2621
     27  O         11.5710   33.3950  -54.9600 O.2   110  ASN110     -0.2715
     28  CB         9.7930   32.6890  -57.1250 C.3   110  ASN110      0.1195
     29  CG         8.6820   33.3600  -57.9090 C.2   110  ASN110      0.2630
     30  OD1        8.8750   34.4270  -58.4930 O.2   110  ASN110     -0.2716
     31  ND2        7.5100   32.7370  -57.9250 N.am  110  ASN110     -0.0877
     32  N         13.2640   32.7680  -56.3040 N.am  111  LEU111     -0.1977
     33  CA        14.1990   32.5440  -55.2080 C.3   111  LEU111      0.1596
     34  C         14.5210   33.8470  -54.4830 C.2   111  LEU111      0.2287
     35  O         14.2450   34.9350  -54.9890 O.2   111  LEU111     -0.2864
     36  CB        15.4860   31.8990  -55.7260 C.3   111  LEU111      0.0297
     37  CG        15.3420   30.5140  -56.3600 C.3   111  LEU111      0.0022
     38  CD1       16.5890   30.1540  -57.1540 C.3   111  LEU111      0.0001
     39  CD2       15.0560   29.4640  -55.2990 C.3   111  LEU111      0.0001
     40  N         17.0480   36.7270  -52.7670 N.3   113  ARG113     -0.1231
     41  CA        18.3420   37.3350  -53.0670 C.3   113  ARG113      0.1694
     42  C         19.5010   36.4430  -52.5830 C.2   113  ARG113      0.2591
     43  O         19.4630   35.8760  -51.4960 O.2   113  ARG113     -0.2718
     44  CB        18.4520   38.7380  -52.4390 C.3   113  ARG113      0.0321
     45  CG        18.3000   39.9040  -53.4390 C.3   113  ARG113      0.0489
     46  CD        18.5440   41.2550  -52.7810 C.3   113  ARG113      0.2205
     47  NE        19.4130   41.1160  -51.6200 N.pl3 113  ARG113     -0.0865
     48  CZ        20.7400   41.2070  -51.6380 C.cat 113  ARG113      0.5346
     49  NH1       21.4170   41.0440  -50.5090 N.pl3 113  ARG113      0.1354
     50  NH2       21.3950   41.4620  -52.7550 N.pl3 113  ARG113      0.1354
     51  N         20.5230   36.3090  -53.4100 N.am  114  LEU114     -0.1980
     52  CA        21.7430   35.6350  -53.0020 C.3   114  LEU114      0.1596
     53  C         22.6190   36.6870  -52.3410 C.2   114  LEU114      0.2287
     54  O         23.0970   37.6070  -53.0210 O.2   114  LEU114     -0.2864
     55  CB        22.4660   35.0770  -54.2130 C.3   114  LEU114      0.0297
     56  CG        22.3090   33.6140  -54.6280 C.3   114  LEU114      0.0022
     57  CD1       23.1200   33.4420  -55.9080 C.3   114  LEU114      0.0001
     58  CD2       22.8130   32.6430  -53.5580 C.3   114  LEU114      0.0001
     59  N         23.4100   29.7450  -58.9670 N.3   141  ILE141     -0.1245
     60  CA        23.2830   30.6620  -60.1200 C.3   141  ILE141      0.1561
     61  C         22.4710   29.9560  -61.1840 C.2   141  ILE141      0.2260
     62  O         21.6170   30.5870  -61.8140 O.2   141  ILE141     -0.2867
     63  CB        24.6550   31.0740  -60.6800 C.3   141  ILE141      0.0252
     64  CG1       25.4740   31.7600  -59.5700 C.3   141  ILE141      0.0019
     65  CG2       24.5310   32.0560  -61.8490 C.3   141  ILE141      0.0019
     66  CD1       26.9350   31.7570  -59.8310 C.3   141  ILE141      0.0001
     67  N         18.7600   29.8570  -60.6910 N.3   144  ARG144     -0.1231
     68  CA        18.2160   31.1940  -60.8130 C.3   144  ARG144      0.1694
     69  C         18.3420   31.7140  -62.2560 C.2   144  ARG144      0.2592
     70  O         17.6710   32.6530  -62.5880 O.2   144  ARG144     -0.2718
     71  CB        18.8500   32.1770  -59.8000 C.3   144  ARG144      0.0321
     72  CG        18.2990   32.0530  -58.3840 C.3   144  ARG144      0.0489
     73  CD        19.0970   32.9310  -57.3860 C.3   144  ARG144      0.2205
     74  NE        18.6120   32.7810  -56.0200 N.pl3 144  ARG144     -0.0865
     75  CZ        18.9600   31.7950  -55.1960 C.cat 144  ARG144      0.5346
     76  NH1       18.4300   31.7500  -53.9630 N.pl3 144  ARG144      0.1354
     77  NH2       19.8180   30.8470  -55.5860 N.pl3 144  ARG144      0.1354
     78  N         19.1770   31.0840  -63.0990 N.am  145  HIS145     -0.1976
     79  CA        19.3270   31.4780  -64.5290 C.3   145  HIS145      0.1656
     80  C         19.1500   30.3230  -65.5320 C.2   145  HIS145      0.2291
     81  O         20.0650   29.9120  -66.2550 O.2   145  HIS145     -0.2864
     82  CB        20.6390   32.2600  -64.7590 C.3   145  HIS145      0.0771
     83  CG        20.7000   33.5400  -63.9640 C.ar  145  HIS145      0.0820
     84  ND1       20.1560   34.7250  -64.4120 N.ar  145  HIS145     -0.2267
     85  CD2       21.1360   33.7840  -62.7030 C.ar  145  HIS145      0.1154
     86  CE1       20.2840   35.6520  -63.4790 C.ar  145  HIS145      0.1986
     87  NE2       20.8670   35.1060  -62.4270 N.ar  145  HIS145     -0.2212
     88  N         20.6020   30.3880  -69.1670 N.3   148  PHE148     -0.1241
     89  CA        22.0160   30.7590  -69.3880 C.3   148  PHE148      0.1605
     90  C         22.7160   29.5480  -69.9630 C.2   148  PHE148      0.2264
     91  O         22.6610   28.4210  -69.4210 O.2   148  PHE148     -0.2867
     92  CB        22.5990   31.1150  -68.0340 C.3   148  PHE148      0.0534
     93  CG        23.7200   32.0670  -68.0630 C.ar  148  PHE148     -0.0203
     94  CD1       24.8880   31.7700  -68.7260 C.ar  148  PHE148     -0.0042
     95  CD2       23.6400   33.2460  -67.3450 C.ar  148  PHE148     -0.0042
     96  CE1       25.9580   32.6550  -68.7170 C.ar  148  PHE148     -0.0003
     97  CE2       24.7040   34.1380  -67.3310 C.ar  148  PHE148     -0.0003
     98  CZ        25.8620   33.8350  -68.0030 C.ar  148  PHE148     -0.0000
     99  N         30.4110   40.1910  -61.5000 N.3   185  ARG185     -0.1245
    100  CA        28.9580   40.3640  -61.4180 C.3   185  ARG185      0.1563
    101  C         28.4010   41.1760  -62.6070 C.2   185  ARG185      0.2260
    102  O         27.5410   40.7160  -63.3280 O.2   185  ARG185     -0.2867
    103  CB        28.5820   41.0140  -60.0860 C.3   185  ARG185      0.0307
    104  CG        27.1530   41.5160  -60.0340 C.3   185  ARG185      0.0489
    105  CD        26.9560   42.4340  -58.8890 C.3   185  ARG185      0.2205
    106  NE        28.0100   43.4440  -58.8580 N.pl3 185  ARG185     -0.0865
    107  CZ        27.9670   44.5800  -58.1520 C.cat 185  ARG185      0.5346
    108  NH1       28.9870   45.4330  -58.1990 N.pl3 185  ARG185      0.1354
    109  NH2       26.9050   44.8730  -57.4080 N.pl3 185  ARG185      0.1354
    110  N         28.7890   39.0760  -65.6920 N.3   188  GLY188     -0.1210
    111  CA        27.7850   37.9950  -65.7370 C.3   188  GLY188      0.1956
    112  C         26.3690   38.5050  -66.0270 C.2   188  GLY188      0.2611
    113  O         25.6610   37.9610  -66.8750 O.2   188  GLY188     -0.2717
    114  N         25.9620   39.5440  -65.3160 N.am  189  LYS189     -0.1979
    115  CA        24.7830   40.3740  -65.6720 C.3   189  LYS189      0.1596
    116  C         24.6700   40.6220  -67.1770 C.2   189  LYS189      0.2287
    117  O         23.6480   40.2970  -67.7940 O.2   189  LYS189     -0.2864
    118  CB        24.8950   41.7490  -65.0160 C.3   189  LYS189      0.0298
    119  CG        23.6420   42.3100  -64.3920 C.3   189  LYS189      0.0038
    120  CD        24.0710   43.1640  -63.1990 C.3   189  LYS189      0.0206
    121  CE        22.9290   43.5630  -62.2850 C.3   189  LYS189      0.1093
    122  NZ        22.4500   44.9580  -62.5150 N.3   189  LYS189     -0.1314
    123  N         24.1800   37.3840  -69.4510 N.3   192  SER192     -0.1217
    124  CA        22.8210   36.9220  -69.3540 C.3   192  SER192      0.1889
    125  C         21.7350   37.8510  -69.9800 C.2   192  SER192      0.2288
    126  O         20.8310   37.3660  -70.6500 O.2   192  SER192     -0.2866
    127  CB        22.4770   36.7230  -67.8870 C.3   192  SER192      0.2089
    128  OG        21.1040   36.4260  -67.8050 O.3   192  SER192     -0.2183
    129  N         16.9470   45.4830  -71.0840 N.3   458  GLN458     -0.1245
    130  CA        16.4160   45.1360  -69.7630 C.3   458  GLN458      0.1566
    131  C         15.4600   46.2090  -69.2600 C.2   458  GLN458      0.2260
    132  O         14.4290   45.9150  -68.6160 O.2   458  GLN458     -0.2867
    133  CB        17.5230   44.8050  -68.7560 C.3   458  GLN458      0.0367
    134  CG        17.5650   43.2880  -68.4480 C.3   458  GLN458      0.0905
    135  CD        16.4920   42.8850  -67.4340 C.2   458  GLN458      0.2608
    136  OE1       15.6900   43.7380  -66.9900 O.2   458  GLN458     -0.2717
    137  NE2       16.4850   41.6060  -67.0320 N.am  458  GLN458     -0.0878
@<TRIPOS>BOND
     1   129   130    1
     2   126   125    2
     3   125   124    1
     4    90    91    2
     5    90    89    1
     6   130   131    1
     7   130   133    1
     8   123   124    1
     9    89    88    1
    10    89    92    1
    11   124   127    1
    12   131   132    2
    13   133   134    1
    14    94    96   ar
    15    94    93   ar
    16    96    98   ar
    17     8     6   ar
    18   134   135    1
    19    93    92    1
    20    93    95   ar
    21    98    97   ar
    22   127   128    1
    23   117   116    2
    24   135   137   am
    25   135   136    2
    26    95    97   ar
    27     6     5    1
    28     6     7   ar
    29   116   115    1
    30   113   112    2
    31     5     2    1
    32    81    80    2
    33   112   111    1
    34   112   114   am
    35   111   110    1
    36   115   114    1
    37   115   118    1
    38    80    79    1
    39     2     1    1
    40     2     3    1
    41   118   119    1
    42    82    79    1
    43    82    83    1
    44    79    78    1
    45     3     4    2
    46     3     9   am
    47    84    83   ar
    48    84    86   ar
    49   119   120    1
    50    83    85   ar
    51     9    10    1
    52    86    87   ar
    53   102   101    2
    54   120   121    1
    55    78    69   am
    56    85    87   ar
    57    15    14    2
    58    10    13    1
    59    10    11    1
    60   101   100    1
    61    70    69    2
    62    13    14    1
    63   122   121    1
    64    23    22    1
    65    23    17    1
    66    14    16   am
    67    69    68    1
    68    65    63    1
    69    62    61    2
    70    22    21    1
    71    99   100    1
    72    17    11   am
    73    17    18    1
    74   100   103    1
    75    11    12    2
    76    61    60    1
    77    68    67    1
    78    68    71    1
    79    63    60    1
    80    63    64    1
    81    18    21    1
    82    18    19    1
    83    60    59    1
    84   103   104    1
    85   104   105    1
    86    66    64    1
    87    71    72    1
    88    19    24   am
    89    19    20    2
    90   105   106    1
    91   106   107    2
    92    24    25    1
    93    30    29    2
    94    72    73    1
    95   108   107    1
    96   107   109    1
    97    31    29   am
    98    29    28    1
    99    73    74    1
   100    25    28    1
   101    25    26    1
   102    38    37    1
   103    37    36    1
   104    37    39    1
   105    32    26   am
   106    32    33    1
   107    26    27    2
   108    74    75    2
   109    57    56    1
   110    36    33    1
   111    77    75    1
   112    33    34    1
   113    75    76    1
   114    35    34    2
   115    56    55    1
   116    56    58    1
   117    55    52    1
   118    45    46    1
   119    45    44    1
   120    51    52    1
   121    51    42   am
   122    41    40    1
   123    41    42    1
   124    41    44    1
   125    54    53    2
   126    52    53    1
   127    46    47    1
   128    50    48    1
   129    42    43    2
   130    48    47    2
   131    48    49    1
