@<TRIPOS>MOLECULE
tmp/3a74A00.pdb
 209 198 0 0 0
SMALL
GASTEIGER

@<TRIPOS>ATOM
      1  N         59.8910  -66.7720   24.4770 N.3   200  ALA200     -0.1231
      2  CA        58.7310  -67.6090   24.1990 C.3   200  ALA200      0.1694
      3  C         57.4460  -66.9150   24.6300 C.2   200  ALA200      0.2591
      4  O         57.4800  -65.8230   25.1930 O.2   200  ALA200     -0.2718
      5  CB        58.8660  -68.9520   24.9310 C.3   200  ALA200      0.0304
      6  N         56.3160  -67.5630   24.3610 N.am  201  ALA201     -0.1980
      7  CA        55.0110  -67.0340   24.7350 C.3   201  ALA201      0.1597
      8  C         54.4700  -67.9200   25.8470 C.2   201  ALA201      0.2287
      9  O         53.8840  -68.9740   25.5840 O.2   201  ALA201     -0.2864
     10  CB        54.0630  -67.0610   23.5330 C.3   201  ALA201      0.0319
     11  N         57.4560  -73.0640   33.0250 N.3   245  ARG245     -0.1245
     12  CA        56.2860  -72.3360   32.5700 C.3   245  ARG245      0.1563
     13  C         55.1520  -72.5380   33.5660 C.2   245  ARG245      0.2260
     14  O         54.8030  -73.6670   33.9180 O.2   245  ARG245     -0.2867
     15  CB        55.9060  -72.7920   31.1570 C.3   245  ARG245      0.0307
     16  CG        56.9790  -72.3930   30.1450 C.3   245  ARG245      0.0489
     17  CD        56.6550  -72.7620   28.7120 C.3   245  ARG245      0.2205
     18  NE        57.7850  -72.4360   27.8450 N.pl3 245  ARG245     -0.0865
     19  CZ        57.7780  -72.5490   26.5200 C.cat 245  ARG245      0.5346
     20  NH1       58.8620  -72.2270   25.8260 N.pl3 245  ARG245      0.1354
     21  NH2       56.6930  -72.9800   25.8850 N.pl3 245  ARG245      0.1354
     22  N         52.0400  -72.9470   33.9280 N.3   247  GLU247     -0.1231
     23  CA        50.8440  -73.3670   33.2080 C.3   247  GLU247      0.1699
     24  C         50.3360  -74.7260   33.6760 C.2   247  GLU247      0.2593
     25  O         51.0620  -75.4810   34.3170 O.2   247  GLU247     -0.2718
     26  CB        51.1380  -73.4430   31.7130 C.3   247  GLU247      0.0402
     27  CG        52.3360  -74.3130   31.3790 C.3   247  GLU247      0.1161
     28  CD        52.5160  -74.5130   29.8890 C.2   247  GLU247      0.3649
     29  OE1       53.6460  -74.8260   29.4640 O.co2 247  GLU247     -0.2457
     30  OE2       51.5210  -74.3670   29.1450 O.co2 247  GLU247     -0.2457
     31  N         49.0870  -75.0300   33.3350 N.am  248  GLY248     -0.1942
     32  CA        48.4950  -76.2970   33.7290 C.3   248  GLY248      0.2014
     33  C         49.2090  -77.4990   33.1420 C.2   248  GLY248      0.2639
     34  O         49.9010  -77.3940   32.1260 O.2   248  GLY248     -0.2714
     35  N         49.0320  -78.6490   33.7820 N.am  249  ILE249     -0.1963
     36  CA        49.6640  -79.8810   33.3320 C.3   249  ILE249      0.1727
     37  C         48.7810  -80.6130   32.3230 C.2   249  ILE249      0.2616
     38  O         47.5690  -80.4050   32.2760 O.2   249  ILE249     -0.2715
     39  CB        49.9510  -80.8160   34.5300 C.3   249  ILE249      0.0290
     40  CG1       48.6440  -81.1750   35.2440 C.3   249  ILE249      0.0022
     41  CG2       50.8940  -80.1260   35.5080 C.3   249  ILE249      0.0023
     42  CD1       48.8260  -82.0690   36.4650 C.3   249  ILE249      0.0001
     43  N         49.4020  -81.4530   31.5030 N.am  250  SER250     -0.1950
     44  CA        48.6770  -82.2290   30.5070 C.3   250  SER250      0.1924
     45  C         49.5350  -83.4340   30.1630 C.2   250  SER250      0.2314
     46  O         50.6330  -83.5900   30.6940 O.2   250  SER250     -0.2863
     47  CB        48.4280  -81.4070   29.2400 C.3   250  SER250      0.2116
     48  OG        49.5720  -81.3940   28.3990 O.3   250  SER250     -0.2180
     49  N         51.1990  -83.7850   27.8190 N.3   252  ARG252     -0.1231
     50  CA        52.3690  -83.3050   27.0980 C.3   252  ARG252      0.1694
     51  C         52.9630  -82.0400   27.7020 C.2   252  ARG252      0.2592
     52  O         53.8780  -81.4510   27.1230 O.2   252  ARG252     -0.2718
     53  CB        52.0240  -83.0770   25.6230 C.3   252  ARG252      0.0321
     54  CG        50.7740  -82.2550   25.3790 C.3   252  ARG252      0.0489
     55  CD        50.3270  -82.3940   23.9280 C.3   252  ARG252      0.2205
     56  NE        49.1610  -81.5720   23.6120 N.pl3 252  ARG252     -0.0865
     57  CZ        47.9790  -81.6760   24.2120 C.cat 252  ARG252      0.5346
     58  NH1       47.7890  -82.5710   25.1750 N.pl3 252  ARG252      0.1354
     59  NH2       46.9790  -80.8860   23.8400 N.pl3 252  ARG252      0.1354
     60  N         52.4460  -81.6400   28.8650 N.am  253  HIS253     -0.1962
     61  CA        52.9180  -80.4480   29.5800 C.3   253  HIS253      0.1787
     62  C         53.1920  -80.6820   31.0690 C.2   253  HIS253      0.2620
     63  O         52.3630  -81.2480   31.7810 O.2   253  HIS253     -0.2715
     64  CB        51.8930  -79.3050   29.5210 C.3   253  HIS253      0.0785
     65  CG        51.6300  -78.7710   28.1500 C.ar  253  HIS253      0.0821
     66  ND1       50.7400  -79.3600   27.2780 N.ar  253  HIS253     -0.2267
     67  CD2       52.1200  -77.6820   27.5110 C.ar  253  HIS253      0.1154
     68  CE1       50.6920  -78.6560   26.1610 C.ar  253  HIS253      0.1986
     69  NE2       51.5190  -77.6320   26.2770 N.ar  253  HIS253     -0.2212
     70  N         54.3550  -80.2270   31.5260 N.am  254  ASN254     -0.1972
     71  CA        54.7480  -80.2820   32.9350 C.3   254  ASN254      0.1688
     72  C         55.3230  -78.8740   33.1510 C.2   254  ASN254      0.2292
     73  O         55.9640  -78.3310   32.2420 O.2   254  ASN254     -0.2864
     74  CB        55.8310  -81.3370   33.1810 C.3   254  ASN254      0.1181
     75  CG        55.9990  -81.6540   34.6540 C.2   254  ASN254      0.2629
     76  OD1       55.1050  -82.2200   35.2810 O.2   254  ASN254     -0.2716
     77  ND2       57.1450  -81.2840   35.2170 N.am  254  ASN254     -0.0877
     78  N         60.2380  -78.5200   32.4460 N.3   257  PHE257     -0.1241
     79  CA        60.5580  -79.5310   31.4550 C.3   257  PHE257      0.1605
     80  C         61.9350  -79.2740   30.8770 C.2   257  PHE257      0.2264
     81  O         62.5540  -78.2460   31.1600 O.2   257  PHE257     -0.2867
     82  CB        59.4920  -79.5680   30.3470 C.3   257  PHE257      0.0534
     83  CG        59.4050  -78.3140   29.5200 C.ar  257  PHE257     -0.0203
     84  CD1       58.7130  -77.1990   29.9820 C.ar  257  PHE257     -0.0042
     85  CD2       59.9850  -78.2660   28.2570 C.ar  257  PHE257     -0.0042
     86  CE1       58.5970  -76.0510   29.1930 C.ar  257  PHE257     -0.0003
     87  CE2       59.8750  -77.1250   27.4620 C.ar  257  PHE257     -0.0003
     88  CZ        59.1780  -76.0160   27.9330 C.ar  257  PHE257     -0.0000
     89  N         64.3790  -78.7090   27.6340 N.3   259  MET259     -0.1245
     90  CA        64.3940  -78.2980   26.2420 C.3   259  MET259      0.1570
     91  C         65.8090  -78.1830   25.7250 C.2   259  MET259      0.2261
     92  O         66.7350  -77.8260   26.4570 O.2   259  MET259     -0.2867
     93  CB        63.7070  -76.9360   26.0660 C.3   259  MET259      0.0387
     94  CG        63.5150  -76.5490   24.5910 C.3   259  MET259      0.0595
     95  SD        63.0070  -74.8420   24.3020 S.3   259  MET259     -0.1393
     96  CE        61.4380  -74.7890   25.2160 C.3   259  MET259      0.0692
     97  N         46.2030  -74.9530   14.1930 N.3   358  GLU358     -0.1245
     98  CA        46.1990  -75.6560   15.4710 C.3   358  GLU358      0.1567
     99  C         44.9130  -76.3980   15.7930 C.2   358  GLU358      0.2260
    100  O         44.9470  -77.5400   16.2580 O.2   358  GLU358     -0.2867
    101  CB        46.5180  -74.6870   16.6090 C.3   358  GLU358      0.0388
    102  CG        48.0050  -74.4760   16.8030 C.3   358  GLU358      0.1160
    103  CD        48.3090  -73.5160   17.9280 C.2   358  GLU358      0.3649
    104  OE1       47.5750  -73.5440   18.9350 O.co2 358  GLU358     -0.2457
    105  OE2       49.2850  -72.7480   17.8020 O.co2 358  GLU358     -0.2457
    106  N         46.7510  -79.6050   12.7990 N.3   362  GLU362     -0.1245
    107  CA        47.8580  -80.2620   13.4800 C.3   362  GLU362      0.1567
    108  C         47.6800  -81.6780   14.0210 C.2   362  GLU362      0.2260
    109  O         48.6270  -82.4630   13.9780 O.2   362  GLU362     -0.2867
    110  CB        48.4310  -79.3400   14.5670 C.3   362  GLU362      0.0388
    111  CG        47.8130  -79.4480   15.9370 C.3   362  GLU362      0.1160
    112  CD        48.5370  -78.5840   16.9590 C.2   362  GLU362      0.3649
    113  OE1       48.4730  -78.9010   18.1640 O.co2 362  GLU362     -0.2457
    114  OE2       49.1600  -77.5800   16.5600 O.co2 362  GLU362     -0.2457
    115  N         60.2120  -69.7270    9.5500 N.3   394  ARG394     -0.1245
    116  CA        60.1560  -70.4830   10.7910 C.3   394  ARG394      0.1563
    117  C         59.4610  -71.8010   10.4920 C.2   394  ARG394      0.2260
    118  O         58.6740  -71.8910    9.5530 O.2   394  ARG394     -0.2867
    119  CB        59.3300  -69.6990   11.8180 C.3   394  ARG394      0.0307
    120  CG        58.8430  -70.5000   13.0260 C.3   394  ARG394      0.0489
    121  CD        57.9060  -69.6760   13.9180 C.3   394  ARG394      0.2205
    122  NE        57.4410  -70.4490   15.0740 N.pl3 394  ARG394     -0.0865
    123  CZ        56.4510  -70.0850   15.8830 C.cat 394  ARG394      0.5346
    124  NH1       55.7980  -68.9460   15.6820 N.pl3 394  ARG394      0.1354
    125  NH2       56.1000  -70.8740   16.8910 N.pl3 394  ARG394      0.1354
    126  N         57.8950  -75.6240   12.5220 N.3   396  GLU396     -0.1245
    127  CA        57.6220  -76.3740   13.7310 C.3   396  GLU396      0.1567
    128  C         57.5520  -77.8100   13.2650 C.2   396  GLU396      0.2260
    129  O         57.0200  -78.1000   12.1870 O.2   396  GLU396     -0.2867
    130  CB        56.2940  -75.9730   14.3760 C.3   396  GLU396      0.0388
    131  CG        56.3570  -74.7100   15.2180 C.3   396  GLU396      0.1160
    132  CD        55.1180  -74.5370   16.0780 C.2   396  GLU396      0.3649
    133  OE1       54.0100  -74.4150   15.5170 O.co2 396  GLU396     -0.2457
    134  OE2       55.2510  -74.5300   17.3180 O.co2 396  GLU396     -0.2457
    135  N         53.5050  -80.8540   18.4120 N.3   403  GLU403     -0.1231
    136  CA        54.7680  -80.1950   18.1070 C.3   403  GLU403      0.1699
    137  C         55.9190  -80.7170   18.9600 C.2   403  GLU403      0.2592
    138  O         55.8010  -80.8610   20.1780 O.2   403  GLU403     -0.2718
    139  CB        54.6280  -78.6750   18.2570 C.3   403  GLU403      0.0402
    140  CG        53.8350  -78.2150   19.4650 C.3   403  GLU403      0.1161
    141  CD        53.4220  -76.7590   19.3570 C.2   403  GLU403      0.3649
    142  OE1       54.2970  -75.8760   19.4760 O.co2 403  GLU403     -0.2457
    143  OE2       52.2200  -76.4980   19.1400 O.co2 403  GLU403     -0.2457
    144  N         57.0310  -81.0090   18.2960 N.am  404  HIS404     -0.1962
    145  CA        58.2210  -81.5290   18.9580 C.3   404  HIS404      0.1787
    146  C         59.3760  -80.5480   18.8640 C.2   404  HIS404      0.2620
    147  O         60.3200  -80.6250   19.6490 O.2   404  HIS404     -0.2715
    148  CB        58.6590  -82.8510   18.3220 C.3   404  HIS404      0.0785
    149  CG        57.7860  -84.0140   18.6760 C.ar  404  HIS404      0.0821
    150  ND1       56.4780  -84.1210   18.2520 N.ar  404  HIS404     -0.2267
    151  CD2       58.0370  -85.1240   19.4090 C.ar  404  HIS404      0.1154
    152  CE1       55.9620  -85.2490   18.7090 C.ar  404  HIS404      0.1986
    153  NE2       56.8870  -85.8770   19.4130 N.ar  404  HIS404     -0.2212
    154  N         59.3140  -79.6450   17.8880 N.am  405  ALA405     -0.1963
    155  CA        60.3770  -78.6640   17.7010 C.3   405  ALA405      0.1728
    156  C         59.8810  -77.3530   17.1010 C.2   405  ALA405      0.2616
    157  O         58.8120  -77.2860   16.4830 O.2   405  ALA405     -0.2715
    158  CB        61.4840  -79.2470   16.8300 C.3   405  ALA405      0.0334
    159  N         60.6860  -76.3140   17.2880 N.am  406  ASN406     -0.1972
    160  CA        60.3700  -74.9750   16.8040 C.3   406  ASN406      0.1688
    161  C         61.7100  -74.3660   16.4070 C.2   406  ASN406      0.2292
    162  O         62.6800  -74.4370   17.1650 O.2   406  ASN406     -0.2864
    163  CB        59.7010  -74.1890   17.9420 C.3   406  ASN406      0.1181
    164  CG        59.2440  -72.8080   17.5270 C.2   406  ASN406      0.2629
    165  OD1       59.1230  -72.5060   16.3440 O.2   406  ASN406     -0.2716
    166  ND2       58.9650  -71.9610   18.5170 N.am  406  ASN406     -0.0877
    167  N         64.7290  -75.3350   18.8360 N.3   457  GLY457     -0.1210
    168  CA        64.2940  -75.6910   20.1740 C.3   457  GLY457      0.1956
    169  C         63.5630  -77.0230   20.0810 C.2   457  GLY457      0.2612
    170  O         62.6290  -77.1560   19.2950 O.2   457  GLY457     -0.2717
    171  N         63.9950  -78.0200   20.8480 N.am  458  ILE458     -0.1965
    172  CA        63.3360  -79.3250   20.8310 C.3   458  ILE458      0.1727
    173  C         62.8750  -79.6960   22.2430 C.2   458  ILE458      0.2616
    174  O         63.6300  -79.5510   23.2060 O.2   458  ILE458     -0.2715
    175  CB        64.2830  -80.4540   20.3490 C.3   458  ILE458      0.0290
    176  CG1       64.7390  -80.2020   18.9100 C.3   458  ILE458      0.0022
    177  CG2       63.5760  -81.7970   20.4630 C.3   458  ILE458      0.0023
    178  CD1       65.6850  -81.2850   18.3680 C.3   458  ILE458      0.0001
    179  N         61.6340  -80.1550   22.3600 N.am  459  GLY459     -0.1955
    180  CA        61.1270  -80.5730   23.6540 C.3   459  GLY459      0.1869
    181  C         61.7010  -81.9550   23.8920 C.2   459  GLY459      0.2309
    182  O         61.2550  -82.9250   23.2880 O.2   459  GLY459     -0.2863
    183  N         61.5480  -83.9700   26.5610 N.3   461  ASP461     -0.1225
    184  CA        60.6020  -84.9040   27.1670 C.3   461  ASP461      0.1805
    185  C         59.6880  -85.4920   26.0880 C.2   461  ASP461      0.2597
    186  O         59.4290  -86.6950   26.0700 O.2   461  ASP461     -0.2718
    187  CB        59.7600  -84.1860   28.2200 C.3   461  ASP461      0.1424
    188  CG        60.6080  -83.3870   29.1760 C.2   461  ASP461      0.3668
    189  OD1       61.1460  -83.9720   30.1360 O.co2 461  ASP461     -0.2456
    190  OD2       60.7620  -82.1740   28.9460 O.co2 461  ASP461     -0.2456
    191  N         59.2030  -84.6490   25.1840 N.am  462  ARG462     -0.1979
    192  CA        58.3260  -85.1380   24.1280 C.3   462  ARG462      0.1597
    193  C         59.0680  -86.0870   23.1890 C.2   462  ARG462      0.2287
    194  O         58.5050  -87.0790   22.7270 O.2   462  ARG462     -0.2864
    195  CB        57.7070  -83.9680   23.3560 C.3   462  ARG462      0.0334
    196  CG        56.7290  -83.1790   24.2100 C.3   462  ARG462      0.0492
    197  CD        55.9760  -82.1280   23.4200 C.3   462  ARG462      0.2205
    198  NE        55.1400  -81.3270   24.3130 N.pl3 462  ARG462     -0.0865
    199  CZ        54.3410  -80.3430   23.9160 C.cat 462  ARG462      0.5346
    200  NH1       54.2590  -80.0260   22.6290 N.pl3 462  ARG462      0.1354
    201  NH2       53.6290  -79.6730   24.8130 N.pl3 462  ARG462      0.1354
    202  N         53.6470  -87.5360   29.2880 N.3   473  ILE473     -0.1245
    203  CA        54.9130  -86.9950   29.7450 C.3   473  ILE473      0.1561
    204  C         55.1440  -87.4340   31.1900 C.2   473  ILE473      0.2260
    205  O         56.2790  -87.4800   31.6590 O.2   473  ILE473     -0.2867
    206  CB        54.9200  -85.4490   29.6450 C.3   473  ILE473      0.0252
    207  CG1       56.3200  -84.9080   29.9460 C.3   473  ILE473      0.0019
    208  CG2       53.8930  -84.8600   30.6060 C.3   473  ILE473      0.0019
    209  CD1       56.4520  -83.3970   29.7460 C.3   473  ILE473      0.0001
@<TRIPOS>BOND
     1   115   116    1
     2   118   117    2
     3   117   116    1
     4   116   119    1
     5   119   120    1
     6   129   128    2
     7   126   127    1
     8   106   107    1
     9   120   121    1
    10   128   127    1
    11   107   108    1
    12   107   110    1
    13   127   130    1
    14   121   122    1
    15   109   108    2
    16    97    98    1
    17   130   131    1
    18   110   111    1
    19   122   123    2
    20   131   132    1
    21    98    99    1
    22    98   101    1
    23   133   132   ar
    24   124   123    1
    25    99   100    2
    26   123   125    1
    27   111   112    1
    28   132   134   ar
    29   165   164    2
    30   161   160    1
    31   161   162    2
    32   157   156    2
    33   114   112   ar
    34   101   102    1
    35   102   103    1
    36   160   159    1
    37   160   163    1
    38   158   155    1
    39   112   113   ar
    40   156   159   am
    41   156   155    1
    42   164   163    1
    43   164   166   am
    44   155   154    1
    45   105   103   ar
    46   154   146   am
    47   103   104   ar
    48   136   139    1
    49   136   135    1
    50   136   137    1
    51   150   149   ar
    52   150   152   ar
    53   139   140    1
    54   144   145    1
    55   144   137   am
    56   148   149    1
    57   148   145    1
    58   178   176    1
    59   149   151   ar
    60   152   153   ar
    61   167   168    1
    62   146   145    1
    63   146   147    2
    64   176   175    1
    65   137   138    2
    66   143   141   ar
    67   170   169    2
    68   141   140    1
    69   141   142   ar
    70   151   153   ar
    71   169   168    1
    72   169   171   am
    73   175   177    1
    74   175   172    1
    75   172   171    1
    76   172   173    1
    77   173   179   am
    78   173   174    2
    79   179   180    1
    80   200   199    1
    81   194   193    2
    82   193   192    1
    83   182   181    2
    84   195   192    1
    85   195   196    1
    86   197   196    1
    87   197   198    1
    88    10     7    1
    89    56    55    1
    90    56    57    2
    91   180   181    1
    92    59    57    1
    93   199   198    2
    94   199   201    1
    95    55    54    1
    96   192   191    1
    97     2     1    1
    98     2     3    1
    99     2     5    1
   100    57    58    1
   101    95    94    1
   102    95    96    1
   103     6     3   am
   104     6     7    1
   105    94    93    1
   106     3     4    2
   107     7     8    1
   108   191   185   am
   109    54    53    1
   110     9     8    2
   111    53    50    1
   112    91    90    1
   113    91    92    2
   114    20    19    1
   115    21    19    1
   116    93    90    1
   117   186   185    2
   118   185   184    1
   119    68    69   ar
   120    68    66   ar
   121    90    89    1
   122    69    67   ar
   123    19    18    2
   124   183   184    1
   125    50    51    1
   126    50    49    1
   127    52    51    2
   128   184   187    1
   129    66    65   ar
   130    87    88   ar
   131    87    85   ar
   132    67    65   ar
   133    51    60   am
   134    18    17    1
   135    88    86   ar
   136    65    64    1
   137   187   188    1
   138    85    83   ar
   139    48    47    1
   140    17    16    1
   141    60    61    1
   142   190   188   ar
   143    30    28   ar
   144   188   189   ar
   145    86    84   ar
   146    47    44    1
   147   202   203    1
   148    29    28   ar
   149    83    84   ar
   150    83    82    1
   151    64    61    1
   152    61    62    1
   153   206   203    1
   154   206   207    1
   155   206   208    1
   156   203   204    1
   157   209   207    1
   158    28    27    1
   159    16    15    1
   160    45    44    1
   161    45    46    2
   162    82    79    1
   163    44    43    1
   164    80    81    2
   165    80    79    1
   166    62    70   am
   167    62    63    2
   168    15    12    1
   169   204   205    2
   170    27    26    1
   171    79    78    1
   172    43    37   am
   173    70    71    1
   174    26    23    1
   175    34    33    2
   176    73    72    2
   177    38    37    2
   178    37    36    1
   179    12    11    1
   180    12    13    1
   181    71    72    1
   182    71    74    1
   183    33    32    1
   184    33    35   am
   185    74    75    1
   186    23    24    1
   187    23    22    1
   188    36    35    1
   189    36    39    1
   190    31    24   am
   191    31    32    1
   192    13    14    2
   193    24    25    2
   194    39    40    1
   195    39    41    1
   196    75    77   am
   197    75    76    2
   198    40    42    1
