@<TRIPOS>MOLECULE
tmp/3a74A01.pdb
 112 104 0 0 0
SMALL
GASTEIGER

@<TRIPOS>ATOM
      1  N         61.8300  -64.9590   25.1360 N.3   199  GLY199     -0.1210
      2  CA        62.2140  -66.0930   24.3150 C.3   199  GLY199      0.1956
      3  C         61.0890  -67.0460   23.9700 C.2   199  GLY199      0.2611
      4  O         61.3060  -68.0230   23.2550 O.2   199  GLY199     -0.2717
      5  N         59.8910  -66.7720   24.4770 N.am  200  ALA200     -0.1979
      6  CA        58.7310  -67.6090   24.1990 C.3   200  ALA200      0.1597
      7  C         57.4460  -66.9150   24.6300 C.2   200  ALA200      0.2287
      8  O         57.4800  -65.8230   25.1930 O.2   200  ALA200     -0.2864
      9  CB        58.8660  -68.9520   24.9310 C.3   200  ALA200      0.0319
     10  N         62.3390  -69.8920   28.4400 N.3   221  ALA221     -0.1245
     11  CA        63.0670  -70.2840   27.2390 C.3   221  ALA221      0.1562
     12  C         64.5490  -69.9800   27.4420 C.2   221  ALA221      0.2260
     13  O         64.9180  -69.2260   28.3440 O.2   221  ALA221     -0.2867
     14  CB        62.5370  -69.5220   26.0240 C.3   221  ALA221      0.0290
     15  N         66.5190  -69.1630   24.6240 N.3   223  GLU223     -0.1245
     16  CA        66.8640  -68.3560   23.4570 C.3   223  GLU223      0.1567
     17  C         67.6480  -67.0490   23.5720 C.2   223  GLU223      0.2260
     18  O         68.6800  -66.8910   22.9260 O.2   223  GLU223     -0.2867
     19  CB        65.5910  -68.0800   22.6490 C.3   223  GLU223      0.0388
     20  CG        65.8420  -67.4360   21.2870 C.3   223  GLU223      0.1160
     21  CD        64.6200  -67.4850   20.3790 C.2   223  GLU223      0.3649
     22  OE1       63.8000  -68.4190   20.5140 O.co2 223  GLU223     -0.2457
     23  OE2       64.4870  -66.5960   19.5170 O.co2 223  GLU223     -0.2457
     24  N         57.4560  -73.0640   33.0250 N.3   245  ARG245     -0.1245
     25  CA        56.2860  -72.3360   32.5700 C.3   245  ARG245      0.1563
     26  C         55.1520  -72.5380   33.5660 C.2   245  ARG245      0.2260
     27  O         54.8030  -73.6670   33.9180 O.2   245  ARG245     -0.2867
     28  CB        55.9060  -72.7920   31.1570 C.3   245  ARG245      0.0307
     29  CG        56.9790  -72.3930   30.1450 C.3   245  ARG245      0.0489
     30  CD        56.6550  -72.7620   28.7120 C.3   245  ARG245      0.2205
     31  NE        57.7850  -72.4360   27.8450 N.pl3 245  ARG245     -0.0865
     32  CZ        57.7780  -72.5490   26.5200 C.cat 245  ARG245      0.5346
     33  NH1       58.8620  -72.2270   25.8260 N.pl3 245  ARG245      0.1354
     34  NH2       56.6930  -72.9800   25.8850 N.pl3 245  ARG245      0.1354
     35  N         64.3790  -78.7090   27.6340 N.3   259  MET259     -0.1245
     36  CA        64.3940  -78.2980   26.2420 C.3   259  MET259      0.1570
     37  C         65.8090  -78.1830   25.7250 C.2   259  MET259      0.2261
     38  O         66.7350  -77.8260   26.4570 O.2   259  MET259     -0.2867
     39  CB        63.7070  -76.9360   26.0660 C.3   259  MET259      0.0387
     40  CG        63.5150  -76.5490   24.5910 C.3   259  MET259      0.0595
     41  SD        63.0070  -74.8420   24.3020 S.3   259  MET259     -0.1393
     42  CE        61.4380  -74.7890   25.2160 C.3   259  MET259      0.0692
     43  N         68.0220  -76.1700   23.1450 N.3   261  GLU261     -0.1245
     44  CA        67.9980  -74.9700   22.3220 C.3   261  GLU261      0.1567
     45  C         69.4030  -74.9220   21.7540 C.2   261  GLU261      0.2260
     46  O         70.3720  -75.2220   22.4520 O.2   261  GLU261     -0.2867
     47  CB        67.7100  -73.6880   23.1170 C.3   261  GLU261      0.0388
     48  CG        66.2460  -73.5130   23.5070 C.3   261  GLU261      0.1160
     49  CD        65.7250  -72.1050   23.2490 C.2   261  GLU261      0.3649
     50  OE1       64.7780  -71.6880   23.9430 O.co2 261  GLU261     -0.2457
     51  OE2       66.2500  -71.4200   22.3450 O.co2 261  GLU261     -0.2457
     52  N         71.9300  -72.8080   18.5930 N.3   263  TYR263     -0.1241
     53  CA        72.0310  -71.7660   17.5890 C.3   263  TYR263      0.1605
     54  C         73.2710  -71.9520   16.7450 C.2   263  TYR263      0.2264
     55  O         74.3280  -72.3340   17.2400 O.2   263  TYR263     -0.2867
     56  CB        72.0110  -70.3930   18.2710 C.3   263  TYR263      0.0534
     57  CG        70.6620  -70.1310   18.8980 C.ar  263  TYR263     -0.0201
     58  CD1       70.3070  -70.7200   20.1150 C.ar  263  TYR263     -0.0009
     59  CD2       69.6810  -69.4410   18.1920 C.ar  263  TYR263     -0.0009
     60  CE1       69.0000  -70.6410   20.5970 C.ar  263  TYR263      0.0417
     61  CE2       68.3760  -69.3560   18.6640 C.ar  263  TYR263      0.0417
     62  CZ        68.0400  -69.9630   19.8590 C.ar  263  TYR263      0.1957
     63  OH        66.7260  -69.9440   20.2670 O.3   263  TYR263     -0.2866
     64  N         60.6860  -76.3140   17.2880 N.3   406  ASN406     -0.1225
     65  CA        60.3700  -74.9750   16.8040 C.3   406  ASN406      0.1785
     66  C         61.7100  -74.3660   16.4070 C.2   406  ASN406      0.2597
     67  O         62.6800  -74.4370   17.1650 O.2   406  ASN406     -0.2718
     68  CB        59.7010  -74.1890   17.9420 C.3   406  ASN406      0.1169
     69  CG        59.2440  -72.8080   17.5270 C.2   406  ASN406      0.2627
     70  OD1       59.1230  -72.5060   16.3440 O.2   406  ASN406     -0.2716
     71  ND2       58.9650  -71.9610   18.5170 N.am  406  ASN406     -0.0877
     72  N         61.7750  -73.7740   15.2190 N.am  407  ALA407     -0.1966
     73  CA        63.0310  -73.2140   14.7500 C.3   407  ALA407      0.1728
     74  C         62.8350  -72.1220   13.7270 C.2   407  ALA407      0.2616
     75  O         61.8270  -72.0870   13.0300 O.2   407  ALA407     -0.2715
     76  CB        63.8840  -74.3240   14.1310 C.3   407  ALA407      0.0334
     77  N         63.8010  -71.2200   13.6330 N.am  408  PHE408     -0.1974
     78  CA        63.6990  -70.1850   12.6220 C.3   408  PHE408      0.1639
     79  C         65.0070  -69.6040   12.1290 C.2   408  PHE408      0.2290
     80  O         66.0900  -69.9050   12.6370 O.2   408  PHE408     -0.2864
     81  CB        62.8020  -68.9960   13.0460 C.3   408  PHE408      0.0560
     82  CG        62.4670  -68.9070   14.5300 C.ar  408  PHE408     -0.0200
     83  CD1       61.4110  -69.6400   15.0640 C.ar  408  PHE408     -0.0042
     84  CD2       63.0980  -67.9680   15.3420 C.ar  408  PHE408     -0.0042
     85  CE1       60.9770  -69.4330   16.3790 C.ar  408  PHE408     -0.0003
     86  CE2       62.6800  -67.7460   16.6580 C.ar  408  PHE408     -0.0003
     87  CZ        61.6150  -68.4750   17.1800 C.ar  408  PHE408     -0.0000
     88  N         66.7560  -66.7670   12.4280 N.3   410  GLU410     -0.1245
     89  CA        66.6650  -65.7670   13.4840 C.3   410  GLU410      0.1567
     90  C         66.6470  -64.3130   13.0400 C.2   410  GLU410      0.2260
     91  O         67.3130  -63.9270   12.0830 O.2   410  GLU410     -0.2867
     92  CB        67.7990  -65.9840   14.4870 C.3   410  GLU410      0.0388
     93  CG        67.8990  -67.4230   14.9900 C.3   410  GLU410      0.1160
     94  CD        66.6870  -67.8550   15.7980 C.2   410  GLU410      0.3649
     95  OE1       66.4450  -69.0770   15.9020 O.co2 410  GLU410     -0.2457
     96  OE2       65.9760  -66.9790   16.3350 O.co2 410  GLU410     -0.2457
     97  N         68.2210  -71.0360   14.4330 N.3   455  GLY455     -0.1210
     98  CA        68.0160  -71.4970   15.8000 C.3   455  GLY455      0.1956
     99  C         67.0230  -72.6370   15.9020 C.2   455  GLY455      0.2612
    100  O         66.1400  -72.7770   15.0550 O.2   455  GLY455     -0.2717
    101  N         67.1420  -73.4260   16.9650 N.am  456  LEU456     -0.1965
    102  CA        66.2890  -74.5900   17.1490 C.3   456  LEU456      0.1728
    103  C         65.9520  -74.8710   18.6050 C.2   456  LEU456      0.2616
    104  O         66.7830  -74.6910   19.4890 O.2   456  LEU456     -0.2715
    105  CB        67.0020  -75.8170   16.5690 C.3   456  LEU456      0.0311
    106  CG        66.4610  -77.2130   16.8940 C.3   456  LEU456      0.0022
    107  CD1       65.1080  -77.4190   16.2020 C.3   456  LEU456      0.0001
    108  CD2       67.4730  -78.2600   16.4340 C.3   456  LEU456      0.0001
    109  N         64.7290  -75.3350   18.8360 N.am  457  GLY457     -0.1955
    110  CA        64.2940  -75.6910   20.1740 C.3   457  GLY457      0.1869
    111  C         63.5630  -77.0230   20.0810 C.2   457  GLY457      0.2309
    112  O         62.6290  -77.1560   19.2950 O.2   457  GLY457     -0.2863
@<TRIPOS>BOND
     1    91    90    2
     2    79    78    1
     3    79    80    2
     4    88    89    1
     5    78    81    1
     6    78    77    1
     7    75    74    2
     8    90    89    1
     9    81    82    1
    10    89    92    1
    11    77    74   am
    12    74    73    1
    13    76    73    1
    14    97    98    1
    15    92    93    1
    16    82    83   ar
    17    82    84   ar
    18    73    72    1
    19    93    94    1
    20   100    99    2
    21    83    85   ar
    22    72    66   am
    23    84    86   ar
    24    94    95   ar
    25    94    96   ar
    26    98    99    1
    27    99   101   am
    28   107   106    1
    29    70    69    2
    30    85    87   ar
    31    66    65    1
    32    66    67    2
    33   108   106    1
    34   105   106    1
    35   105   102    1
    36    86    87   ar
    37    54    55    2
    38    54    53    1
    39    65    64    1
    40    65    68    1
    41   101   102    1
    42   102   103    1
    43    69    68    1
    44    69    71   am
    45    53    56    1
    46    53    52    1
    47    59    61   ar
    48    59    57   ar
    49    56    57    1
    50   103   109   am
    51   103   104    2
    52    61    62   ar
    53   109   110    1
    54    57    58   ar
    55   112   111    2
    56    23    21   ar
    57    62    63    1
    58    62    60   ar
    59   111   110    1
    60    58    60   ar
    61    21    22   ar
    62    21    20    1
    63    20    19    1
    64    45    44    1
    65    45    46    2
    66    44    47    1
    67    44    43    1
    68    51    49   ar
    69    19    16    1
    70    18    17    2
    71    47    48    1
    72    49    48    1
    73    49    50   ar
    74     4     3    2
    75    16    17    1
    76    16    15    1
    77     3     2    1
    78     3     5   am
    79     6     5    1
    80     6     7    1
    81     6     9    1
    82    41    40    1
    83    41    42    1
    84     2     1    1
    85    40    39    1
    86     7     8    2
    87    37    36    1
    88    37    38    2
    89    33    32    1
    90    34    32    1
    91    14    11    1
    92    39    36    1
    93    36    35    1
    94    32    31    2
    95    11    12    1
    96    11    10    1
    97    12    13    2
    98    31    30    1
    99    30    29    1
   100    29    28    1
   101    28    25    1
   102    25    24    1
   103    25    26    1
   104    26    27    2
