@<TRIPOS>MOLECULE
tmp/3a75D00.pdb
 93 85 0 0 0
SMALL
GASTEIGER

@<TRIPOS>ATOM
      1  N         -8.6960   98.9790   42.6720 N.3     1  THR1       -0.1218
      2  CA        -8.2730   98.0120   41.6130 C.3     1  THR1        0.1862
      3  C         -9.4200   97.7030   40.6760 C.2     1  THR1        0.2287
      4  O        -10.5900   97.6580   41.1030 O.2     1  THR1       -0.2866
      5  CB        -7.8670   96.6730   42.2200 C.3     1  THR1        0.1770
      6  OG1       -6.7770   96.9090   43.1380 O.3     1  THR1       -0.2211
      7  CG2       -7.3640   95.6980   41.1170 C.3     1  THR1        0.0375
      8  N         -4.4660   99.3640   39.2640 N.3    19  THR19      -0.1218
      9  CA        -4.8480   99.8530   40.6140 C.3    19  THR19       0.1862
     10  C         -4.1020  101.1390   41.1060 C.2    19  THR19       0.2287
     11  O         -3.1370  101.5710   40.5000 O.2    19  THR19      -0.2866
     12  CB        -4.5530   98.7130   41.6350 C.3    19  THR19       0.1770
     13  OG1       -5.1450   98.9920   42.9090 O.3    19  THR19      -0.2211
     14  CG2       -3.0550   98.5550   41.8350 C.3    19  THR19       0.0375
     15  N         -4.1150  101.1290   44.5090 N.3    21  GLU21      -0.1231
     16  CA        -4.1540  100.3830   45.8040 C.3    21  GLU21       0.1699
     17  C         -5.4860  100.5420   46.5510 C.2    21  GLU21       0.2592
     18  O         -6.5010  100.0150   46.1020 O.2    21  GLU21      -0.2718
     19  CB        -2.9090  100.7280   46.6680 C.3    21  GLU21       0.0402
     20  CG        -2.3460   99.5940   47.5480 C.3    21  GLU21       0.1161
     21  CD        -3.3980   98.9380   48.4300 C.2    21  GLU21       0.3649
     22  OE1       -4.0930   98.0360   47.9270 O.co2  21  GLU21      -0.2457
     23  OE2       -3.5470   99.3170   49.6290 O.co2  21  GLU21      -0.2457
     24  N         -5.5320  101.2240   47.7000 N.am   22  GLN22      -0.1979
     25  CA        -6.8130  101.3990   48.3900 C.3    22  GLN22       0.1601
     26  C         -7.7730  102.1640   47.4820 C.2    22  GLN22       0.2287
     27  O         -7.3610  102.7170   46.4660 O.2    22  GLN22      -0.2864
     28  CB        -6.6170  102.2540   49.6420 C.3    22  GLN22       0.0394
     29  CG        -5.8050  101.5560   50.7050 C.3    22  GLN22       0.0908
     30  CD        -6.5800  100.4300   51.2820 C.2    22  GLN22       0.2608
     31  OE1       -6.3290   99.2670   51.0060 O.2    22  GLN22      -0.2717
     32  NE2       -7.5620  100.7770   52.0830 N.am   22  GLN22      -0.0878
     33  N          0.4560  102.5070   46.8640 N.3    40  GLU40      -0.1245
     34  CA         0.9890  101.1830   46.5810 C.3    40  GLU40       0.1567
     35  C          2.0780  100.6290   47.4630 C.2    40  GLU40       0.2260
     36  O          2.1640   99.4130   47.6840 O.2    40  GLU40      -0.2867
     37  CB         1.4810  101.1310   45.1620 C.3    40  GLU40       0.0388
     38  CG         0.3560  100.8380   44.2950 C.3    40  GLU40       0.1160
     39  CD         0.0010   99.4290   44.4280 C.2    40  GLU40       0.3649
     40  OE1        0.9940   98.6850   44.4580 O.co2  40  GLU40      -0.2457
     41  OE2       -1.1980   99.0510   44.5030 O.co2  40  GLU40      -0.2457
     42  N          1.7980   98.0250   50.2180 N.3    43  ASP43      -0.1239
     43  CA         1.7570   96.6110   49.8140 C.3    43  ASP43       0.1674
     44  C          3.0560   95.9300   50.2340 C.2    43  ASP43       0.2266
     45  O          3.1340   94.6960   50.2190 O.2    43  ASP43      -0.2867
     46  CB         1.5480   96.4330   48.3220 C.3    43  ASP43       0.1410
     47  CG         0.0380   96.3340   47.9310 C.2    43  ASP43       0.3668
     48  OD1       -0.8040   96.5900   48.8220 O.co2  43  ASP43      -0.2456
     49  OD2       -0.3150   96.0020   46.7460 O.co2  43  ASP43      -0.2456
     50  N          5.0290   93.7190   46.4970 N.3    61  LEU61      -0.1231
     51  CA         4.3430   92.5230   46.0210 C.3    61  LEU61       0.1693
     52  C          2.8580   92.8400   45.6460 C.2    61  LEU61       0.2593
     53  O          2.1710   93.5330   46.3490 O.2    61  LEU61      -0.2718
     54  CB         4.3870   91.4250   47.1150 C.3    61  LEU61       0.0284
     55  CG         3.8020   90.0440   46.7560 C.3    61  LEU61       0.0019
     56  CD1        4.6140   89.4350   45.6480 C.3    61  LEU61       0.0001
     57  CD2        3.7700   89.1120   47.9410 C.3    61  LEU61       0.0001
     58  N          2.4040   92.3510   44.5020 N.am   62  SER62      -0.1938
     59  CA         0.9980   92.5390   44.0970 C.3    62  SER62       0.2055
     60  C          0.3360   91.1750   44.1480 C.2    62  SER62       0.2644
     61  O          1.0340   90.1490   44.2580 O.2    62  SER62      -0.2714
     62  CB         0.9280   93.0260   42.6400 C.3    62  SER62       0.2130
     63  OG        -0.3980   93.3760   42.2520 O.3    62  SER62      -0.2179
     64  N         -0.9990   91.1530   44.0990 N.am   63  SER63      -0.1935
     65  CA        -1.6950   89.8660   43.9820 C.3    63  SER63       0.2055
     66  C         -2.4760   89.9550   42.6560 C.2    63  SER63       0.2642
     67  O         -3.3190   89.0970   42.3760 O.2    63  SER63      -0.2714
     68  CB        -2.7270   89.6390   45.1060 C.3    63  SER63       0.2130
     69  OG        -2.1090   89.6450   46.3760 O.3    63  SER63      -0.2179
     70  N         -2.2340   90.9900   41.8370 N.am   64  MET64      -0.1976
     71  CA        -3.0030   91.0630   40.5830 C.3    64  MET64       0.1605
     72  C         -2.7290   89.8440   39.6870 C.2    64  MET64       0.2287
     73  O         -1.5880   89.4190   39.5110 O.2    64  MET64      -0.2864
     74  CB        -2.7710   92.3870   39.8840 C.3    64  MET64       0.0413
     75  CG        -3.3540   93.5910   40.7010 C.3    64  MET64       0.0598
     76  SD        -3.1190   95.1780   39.7400 S.3    64  MET64      -0.1393
     77  CE        -1.4680   95.7370   40.3190 C.3    64  MET64       0.0692
     78  N         -9.3610   93.1660   44.2050 N.3    83  GLY83      -0.1210
     79  CA        -9.6730   92.5930   45.5020 C.3    83  GLY83       0.1956
     80  C         -8.5200   92.2820   46.4500 C.2    83  GLY83       0.2612
     81  O         -8.6740   91.4820   47.3470 O.2    83  GLY83      -0.2717
     82  N         -7.3440   92.8480   46.2120 N.am   84  GLY84      -0.1956
     83  CA        -6.2110   92.5940   47.0990 C.3    84  GLY84       0.1869
     84  C         -5.8000   91.1240   47.0930 C.2    84  GLY84       0.2309
     85  O         -5.8130   90.5160   46.0430 O.2    84  GLY84      -0.2863
     86  N         -7.8260   88.3840   45.1380 N.3    87  ILE87      -0.1245
     87  CA        -7.7860   88.2080   43.6880 C.3    87  ILE87       0.1561
     88  C         -7.4330   86.7920   43.2380 C.2    87  ILE87       0.2260
     89  O         -8.0510   86.2580   42.3310 O.2    87  ILE87      -0.2867
     90  CB        -6.7620   89.1840   43.0440 C.3    87  ILE87       0.0252
     91  CG1       -7.2690   90.5910   43.1930 C.3    87  ILE87       0.0019
     92  CG2       -6.4290   88.7730   41.6050 C.3    87  ILE87       0.0019
     93  CD1       -6.2220   91.7110   42.7200 C.3    87  ILE87       0.0001
@<TRIPOS>BOND
     1     8     9    1
     2    73    72    2
     3    72    71    1
     4    76    77    1
     5    76    75    1
     6    74    71    1
     7    74    75    1
     8    11    10    2
     9    71    70    1
    10     9    10    1
    11     9    12    1
    12     3     4    2
    13     3     2    1
    14     7     5    1
    15    92    90    1
    16     2     5    1
    17     2     1    1
    18    12    14    1
    19    12    13    1
    20    70    66   am
    21     5     6    1
    22    63    62    1
    23    89    88    2
    24    67    66    2
    25    62    59    1
    26    66    65    1
    27    93    91    1
    28    90    91    1
    29    90    87    1
    30    88    87    1
    31    87    86    1
    32    65    64    1
    33    65    68    1
    34    59    60    1
    35    59    58    1
    36    64    60   am
    37    60    61    2
    38    78    79    1
    39    38    39    1
    40    38    37    1
    41    39    40   ar
    42    39    41   ar
    43    58    52   am
    44    15    16    1
    45    68    69    1
    46    37    34    1
    47    79    80    1
    48    52    51    1
    49    52    53    2
    50    56    55    1
    51    16    17    1
    52    16    19    1
    53    51    50    1
    54    51    54    1
    55    85    84    2
    56    18    17    2
    57    82    80   am
    58    82    83    1
    59    80    81    2
    60    27    26    2
    61    17    24   am
    62    34    33    1
    63    34    35    1
    64    19    20    1
    65    49    47   ar
    66    55    54    1
    67    55    57    1
    68    84    83    1
    69    35    36    2
    70    26    25    1
    71    20    21    1
    72    24    25    1
    73    22    21   ar
    74    47    46    1
    75    47    48   ar
    76    46    43    1
    77    25    28    1
    78    21    23   ar
    79    28    29    1
    80    43    42    1
    81    43    44    1
    82    45    44    2
    83    29    30    1
    84    31    30    2
    85    30    32   am
