@<TRIPOS>MOLECULE
tmp/3a76B00.pdb
 137 128 0 0 0
SMALL
GASTEIGER

@<TRIPOS>ATOM
      1  N        -15.1410   25.7720   17.9550 N.3    20  LYS20      -0.1245
      2  CA       -16.0760   26.8630   18.1110 C.3    20  LYS20       0.1561
      3  C        -16.5750   27.2680   16.7480 C.2    20  LYS20       0.2260
      4  O        -17.7720   27.4190   16.5460 O.2    20  LYS20      -0.2867
      5  CB       -15.4700   28.0810   18.8270 C.3    20  LYS20       0.0271
      6  CG       -16.5400   28.8340   19.6130 C.3    20  LYS20       0.0035
      7  CD       -16.4250   30.3250   19.5700 C.3    20  LYS20       0.0206
      8  CE       -17.2420   30.8920   18.4170 C.3    20  LYS20       0.1093
      9  NZ       -17.0260   32.3560   18.3030 N.3    20  LYS20      -0.1314
     10  N        -19.3820   39.0890   22.0840 N.3    44  ILE44      -0.1231
     11  CA       -19.1730   39.6070   20.7530 C.3    44  ILE44       0.1692
     12  C        -19.5520   41.0820   20.8180 C.2    44  ILE44       0.2592
     13  O        -20.7130   41.4330   21.0910 O.2    44  ILE44      -0.2718
     14  CB       -19.9960   38.8280   19.6880 C.3    44  ILE44       0.0266
     15  CG1      -19.5130   37.3650   19.5830 C.3    44  ILE44       0.0019
     16  CG2      -19.9140   39.5330   18.3350 C.3    44  ILE44       0.0020
     17  CD1      -20.4250   36.4170   18.7350 C.3    44  ILE44       0.0001
     18  N        -18.5660   41.9480   20.6010 N.am   45  GLU45      -0.1966
     19  CA       -18.8110   43.3820   20.6080 C.3    45  GLU45       0.1733
     20  C        -19.9120   43.7420   19.6200 C.2    45  GLU45       0.2617
     21  O        -19.8890   43.2960   18.4760 O.2    45  GLU45      -0.2715
     22  CB       -17.5340   44.1550   20.2960 C.3    45  GLU45       0.0429
     23  CG       -16.6100   44.3110   21.4720 C.3    45  GLU45       0.1163
     24  CD       -15.2290   44.8170   21.0770 C.2    45  GLU45       0.3649
     25  OE1      -14.2530   44.0960   21.3600 O.co2  45  GLU45      -0.2457
     26  OE2      -15.1150   45.9150   20.4790 O.co2  45  GLU45      -0.2457
     27  N        -20.8830   44.5320   20.0740 N.am   46  GLY46      -0.1940
     28  CA       -22.0150   44.9210   19.2440 C.3    46  GLY46       0.2014
     29  C        -23.1390   43.9030   19.2600 C.2    46  GLY46       0.2638
     30  O        -24.1910   44.1380   18.6560 O.2    46  GLY46      -0.2714
     31  N        -22.9210   42.7790   19.9440 N.am   47  ILE47      -0.1977
     32  CA       -23.8980   41.6830   20.0220 C.3    47  ILE47       0.1596
     33  C        -24.2710   41.3300   21.4660 C.2    47  ILE47       0.2287
     34  O        -25.4410   41.0880   21.7780 O.2    47  ILE47      -0.2864
     35  CB       -23.3860   40.3960   19.2920 C.3    47  ILE47       0.0276
     36  CG1      -23.3160   40.6140   17.7750 C.3    47  ILE47       0.0022
     37  CG2      -24.2250   39.1510   19.6580 C.3    47  ILE47       0.0022
     38  CD1      -24.5640   41.1640   17.1590 C.3    47  ILE47       0.0001
     39  N        -27.0700   34.1740   16.0340 N.3    64  LEU64      -0.1245
     40  CA       -26.1300   33.8320   14.9520 C.3    64  LEU64       0.1561
     41  C        -26.7920   33.0710   13.8120 C.2    64  LEU64       0.2260
     42  O        -26.7490   33.5220   12.6630 O.2    64  LEU64      -0.2867
     43  CB       -24.8860   33.0930   15.4670 C.3    64  LEU64       0.0270
     44  CG       -23.9730   33.8750   16.4350 C.3    64  LEU64       0.0019
     45  CD1      -22.7270   33.0610   16.7690 C.3    64  LEU64       0.0001
     46  CD2      -23.6100   35.2640   15.9120 C.3    64  LEU64       0.0001
     47  N        -29.3710   35.0160   11.8750 N.3    67  MET67      -0.1230
     48  CA       -28.7420   36.1540   11.1720 C.3    67  MET67       0.1702
     49  C        -28.2740   35.8320    9.7400 C.2    67  MET67       0.2592
     50  O        -28.3130   36.6910    8.8520 O.2    67  MET67      -0.2718
     51  CB       -27.5580   36.6730   12.0040 C.3    67  MET67       0.0401
     52  CG       -26.9350   37.9680   11.5070 C.3    67  MET67       0.0596
     53  SD       -25.6170   38.5860   12.5900 S.3    67  MET67      -0.1393
     54  CE       -26.5900   39.4710   13.8150 C.3    67  MET67       0.0692
     55  N        -27.8270   34.5950    9.5340 N.am   68  PHE68      -0.1976
     56  CA       -27.2000   34.1640    8.2820 C.3    68  PHE68       0.1639
     57  C        -27.9510   32.9940    7.6550 C.2    68  PHE68       0.2290
     58  O        -28.4460   32.1170    8.3730 O.2    68  PHE68      -0.2864
     59  CB       -25.7950   33.6360    8.5650 C.3    68  PHE68       0.0560
     60  CG       -24.7860   34.6860    8.9390 C.ar   68  PHE68      -0.0200
     61  CD1      -24.0440   35.3300    7.9540 C.ar   68  PHE68      -0.0042
     62  CD2      -24.5170   34.9630   10.2810 C.ar   68  PHE68      -0.0042
     63  CE1      -23.0890   36.2620    8.2890 C.ar   68  PHE68      -0.0003
     64  CE2      -23.5600   35.9150   10.6300 C.ar   68  PHE68      -0.0003
     65  CZ       -22.8390   36.5640    9.6330 C.ar   68  PHE68      -0.0000
     66  N        -16.3850   30.4710    8.9820 N.3    73  HIS73      -0.1241
     67  CA       -15.2640   31.0760    9.7170 C.3    73  HIS73       0.1621
     68  C        -13.9170   30.4140    9.3880 C.2    73  HIS73       0.2264
     69  O        -13.7420   29.2160    9.6150 O.2    73  HIS73      -0.2867
     70  CB       -15.4740   30.9140   11.2280 C.3    73  HIS73       0.0745
     71  CG       -16.5900   31.7280   11.7930 C.ar   73  HIS73       0.0817
     72  ND1      -17.9120   31.3520   11.6870 N.ar   73  HIS73      -0.2268
     73  CD2      -16.5810   32.8810   12.5050 C.ar   73  HIS73       0.1154
     74  CE1      -18.6710   32.2440   12.2990 C.ar   73  HIS73       0.1986
     75  NE2      -17.8880   33.1820   12.8040 N.ar   73  HIS73      -0.2212
     76  N         -9.8010   35.8310   12.5460 N.3    94  VAL94      -0.1245
     77  CA       -10.7770   35.0560   11.7890 C.3    94  VAL94       0.1561
     78  C        -11.2070   35.8240   10.5720 C.2    94  VAL94       0.2260
     79  O        -11.3850   37.0340   10.6260 O.2    94  VAL94      -0.2867
     80  CB       -12.0280   34.6190   12.6440 C.3    94  VAL94       0.0252
     81  CG1      -12.8790   35.8260   13.0790 C.3    94  VAL94       0.0019
     82  CG2      -12.8830   33.5670   11.8900 C.3    94  VAL94       0.0019
     83  N        -14.4340   35.6760    8.1660 N.3    96  LEU96      -0.1245
     84  CA       -15.7890   35.1690    8.0110 C.3    96  LEU96       0.1561
     85  C        -16.4100   35.6250    6.7010 C.2    96  LEU96       0.2260
     86  O        -16.4890   36.8290    6.4260 O.2    96  LEU96      -0.2867
     87  CB       -16.6940   35.6190    9.1740 C.3    96  LEU96       0.0270
     88  CG       -18.2050   35.2780    9.1530 C.3    96  LEU96       0.0019
     89  CD1      -18.7900   35.2420   10.5370 C.3    96  LEU96       0.0001
     90  CD2      -19.0310   36.2700    8.3110 C.3    96  LEU96       0.0001
     91  N        -16.2930   39.5700    7.0870 N.3   109  ILE109     -0.1245
     92  CA       -15.9360   40.1110    8.3880 C.3   109  ILE109      0.1561
     93  C        -14.5070   39.6690    8.7480 C.2   109  ILE109      0.2260
     94  O        -14.1400   38.5070    8.5540 O.2   109  ILE109     -0.2867
     95  CB       -16.9770   39.6790    9.4810 C.3   109  ILE109      0.0252
     96  CG1      -18.3250   40.3560    9.2130 C.3   109  ILE109      0.0019
     97  CG2      -16.4930   39.9960   10.9160 C.3   109  ILE109      0.0019
     98  CD1      -19.5020   39.7150    9.9150 C.3   109  ILE109      0.0001
     99  N        -12.2290   39.6120   12.1260 N.3   111  ALA111     -0.1245
    100  CA       -12.3520   39.7830   13.5620 C.3   111  ALA111      0.1562
    101  C        -11.1660   39.2270   14.3240 C.2   111  ALA111      0.2260
    102  O        -10.4730   38.3400   13.8490 O.2   111  ALA111     -0.2867
    103  CB       -13.6810   39.1840   14.0870 C.3   111  ALA111      0.0290
    104  N        -10.0130   37.4480   17.9580 N.3   113  PHE113     -0.1241
    105  CA       -10.4000   36.7480   19.1770 C.3   113  PHE113      0.1605
    106  C         -9.3750   36.9870   20.2930 C.2   113  PHE113      0.2264
    107  O         -8.1700   36.8350   20.0790 O.2   113  PHE113     -0.2867
    108  CB       -10.5370   35.2420   18.9100 C.3   113  PHE113      0.0534
    109  CG       -11.6020   34.8900   17.8940 C.ar  113  PHE113     -0.0203
    110  CD1      -11.3370   33.9740   16.8830 C.ar  113  PHE113     -0.0042
    111  CD2      -12.8660   35.4650   17.9550 C.ar  113  PHE113     -0.0042
    112  CE1      -12.3270   33.6280   15.9550 C.ar  113  PHE113     -0.0003
    113  CE2      -13.8620   35.1370   17.0180 C.ar  113  PHE113     -0.0003
    114  CZ       -13.5910   34.2180   16.0230 C.ar  113  PHE113     -0.0000
    115  N        -14.7130   38.6850   20.9580 N.3   131  ALA131     -0.1245
    116  CA       -14.6480   38.7710   19.5240 C.3   131  ALA131      0.1562
    117  C        -14.8490   40.2210   19.1760 C.2   131  ALA131      0.2260
    118  O        -15.8610   40.8170   19.5170 O.2   131  ALA131     -0.2867
    119  CB       -15.7240   37.9190   18.8930 C.3   131  ALA131      0.0290
    120  N        -14.7380   42.8560   15.9420 N.3   133  THR133     -0.1218
    121  CA       -14.7270   42.8960   14.4830 C.3   133  THR133      0.1862
    122  C        -14.1290   44.1910   13.9340 C.2   133  THR133      0.2287
    123  O        -14.6170   45.2990   14.2100 O.2   133  THR133     -0.2866
    124  CB       -16.0870   42.5220   13.8070 C.3   133  THR133      0.1770
    125  OG1      -16.8870   43.6840   13.6020 O.3   133  THR133     -0.2211
    126  CG2      -16.8520   41.5170   14.6260 C.3   133  THR133      0.0375
    127  N        -16.2250   44.8650    8.4690 N.3   136  PHE136     -0.1241
    128  CA       -17.5780   44.3800    8.2810 C.3   136  PHE136      0.1605
    129  C        -18.0350   44.9350    6.9450 C.2   136  PHE136      0.2264
    130  O        -18.4600   46.0960    6.8610 O.2   136  PHE136     -0.2867
    131  CB       -18.4730   44.8920    9.4100 C.3   136  PHE136      0.0534
    132  CG       -19.8910   44.3690    9.3740 C.ar  136  PHE136     -0.0203
    133  CD1      -20.2730   43.3060   10.1950 C.ar  136  PHE136     -0.0042
    134  CD2      -20.8550   44.9680    8.5600 C.ar  136  PHE136     -0.0042
    135  CE1      -21.5870   42.8170   10.1850 C.ar  136  PHE136     -0.0003
    136  CE2      -22.1730   44.4940    8.5370 C.ar  136  PHE136     -0.0003
    137  CZ       -22.5420   43.4160    9.3530 C.ar  136  PHE136     -0.0000
@<TRIPOS>BOND
     1    86    85    2
     2    85    84    1
     3   130   129    2
     4   129   128    1
     5    91    92    1
     6    57    56    1
     7    57    58    2
     8    61    63   ar
     9    61    60   ar
    10    84    83    1
    11    84    87    1
    12   128   127    1
    13   128   131    1
    14    56    59    1
    15    56    55    1
    16    63    65   ar
    17    90    88    1
    18    92    93    1
    19    92    95    1
    20   136   134   ar
    21   136   137   ar
    22    94    93    2
    23   134   132   ar
    24    59    60    1
    25    50    49    2
    26    60    62   ar
    27    66    67    1
    28    88    87    1
    29    88    89    1
    30    96    95    1
    31    96    98    1
    32   137   135   ar
    33   132   131    1
    34   132   133   ar
    35    68    69    2
    36    68    67    1
    37    95    97    1
    38    55    49   am
    39    65    64   ar
    40    67    70    1
    41    49    48    1
    42   135   133   ar
    43    62    64   ar
    44    78    79    2
    45    78    77    1
    46    48    47    1
    47    48    51    1
    48    70    71    1
    49    52    51    1
    50    52    53    1
    51    72    71   ar
    52    72    74   ar
    53    77    76    1
    54    77    80    1
    55    71    73   ar
    56    82    80    1
    57    99   100    1
    58    74    75   ar
    59    73    75   ar
    60    53    54    1
    61    80    81    1
    62    42    41    2
    63   100   103    1
    64   100   101    1
    65   125   124    1
    66   124   121    1
    67   124   126    1
    68    41    40    1
    69   102   101    2
    70   122   123    2
    71   122   121    1
    72   121   120    1
    73    40    43    1
    74    40    39    1
    75    43    44    1
    76    46    44    1
    77   112   114   ar
    78   112   110   ar
    79   114   113   ar
    80    44    45    1
    81     4     3    2
    82     3     2    1
    83   110   109   ar
    84   113   111   ar
    85    38    36    1
    86    36    35    1
    87   109   111   ar
    88   109   108    1
    89     1     2    1
    90   104   105    1
    91     2     5    1
    92     9     8    1
    93    16    14    1
    94     8     7    1
    95    21    20    2
    96    30    29    2
    97    17    15    1
    98     5     6    1
    99   119   116    1
   100   108   105    1
   101   117   118    2
   102   117   116    1
   103   105   106    1
   104    28    29    1
   105    28    27    1
   106    29    31   am
   107    35    37    1
   108    35    32    1
   109   116   115    1
   110     7     6    1
   111    15    14    1
   112    20    27   am
   113    20    19    1
   114    14    11    1
   115    31    32    1
   116    32    33    1
   117   107   106    2
   118    22    19    1
   119    22    23    1
   120    26    24   ar
   121    18    19    1
   122    18    12   am
   123    11    12    1
   124    11    10    1
   125    12    13    2
   126    24    25   ar
   127    24    23    1
   128    33    34    2
