@<TRIPOS>MOLECULE
tmp/3a79B04.pdb
 91 83 0 0 0
SMALL
GASTEIGER

@<TRIPOS>ATOM
      1  N         50.9740  -32.0580   43.8470 N.3   276  MET276     -0.1245
      2  CA        50.9500  -32.4160   42.4410 C.3   276  MET276      0.1570
      3  C         50.6400  -33.9000   42.2930 C.2   276  MET276      0.2261
      4  O         51.4530  -34.7500   42.6570 O.2   276  MET276     -0.2867
      5  CB        52.2940  -32.1100   41.7980 C.3   276  MET276      0.0387
      6  CG        52.2320  -32.0120   40.2890 C.3   276  MET276      0.0595
      7  SD        53.3480  -33.1280   39.4290 S.3   276  MET276     -0.1393
      8  CE        52.4650  -34.6530   39.6600 C.3   276  MET276      0.0692
      9  N         49.4450  -37.0060   39.6330 N.3   278  GLU278     -0.1245
     10  CA        49.4090  -37.3680   38.2200 C.3   278  GLU278      0.1567
     11  C         49.1920  -38.8490   38.0140 C.2   278  GLU278      0.2260
     12  O         49.9320  -39.6730   38.5380 O.2   278  GLU278     -0.2867
     13  CB        50.6880  -36.9400   37.4900 C.3   278  GLU278      0.0388
     14  CG        50.5120  -36.8610   35.9720 C.3   278  GLU278      0.1160
     15  CD        51.8020  -36.5650   35.2090 C.2   278  GLU278      0.3649
     16  OE1       52.6190  -35.7300   35.6740 O.co2 278  GLU278     -0.2457
     17  OE2       51.9840  -37.1680   34.1260 O.co2 278  GLU278     -0.2457
     18  N         48.0670  -29.2140   41.3690 N.3   305  SER305     -0.1217
     19  CA        47.8970  -29.8900   40.0890 C.3   305  SER305      0.1889
     20  C         47.2920  -31.2780   40.3170 C.2   305  SER305      0.2288
     21  O         47.7990  -32.0520   41.1200 O.2   305  SER305     -0.2866
     22  CB        49.2370  -30.0360   39.3530 C.3   305  SER305      0.2089
     23  OG        49.8400  -28.7900   39.0310 O.3   305  SER305     -0.2183
     24  N         46.2160  -34.2900   37.6220 N.3   307  SER307     -0.1202
     25  CA        46.1840  -34.6160   36.1870 C.3   307  SER307      0.2020
     26  C         46.0790  -36.1110   35.8520 C.2   307  SER307      0.2618
     27  O         46.5240  -36.9680   36.6100 O.2   307  SER307     -0.2717
     28  CB        47.4260  -34.0390   35.4980 C.3   307  SER307      0.2103
     29  OG        47.5130  -32.6380   35.6910 O.3   307  SER307     -0.2182
     30  N         45.5030  -36.4150   34.6950 N.am  308  ASP308     -0.1973
     31  CA        45.3900  -37.8000   34.2370 C.3   308  ASP308      0.1709
     32  C         44.6310  -38.6970   35.2320 C.2   308  ASP308      0.2293
     33  O         45.1480  -39.7080   35.7040 O.2   308  ASP308     -0.2864
     34  CB        46.7790  -38.3620   33.9470 C.3   308  ASP308      0.1436
     35  CG        46.7420  -39.7120   33.2570 C.2   308  ASP308      0.3671
     36  OD1       45.6500  -40.1710   32.8370 O.co2 308  ASP308     -0.2456
     37  OD2       47.8320  -40.3120   33.1390 O.co2 308  ASP308     -0.2456
     38  N         47.7390  -21.1130   41.5280 N.3   325  PHE325     -0.1241
     39  CA        48.0690  -21.9770   40.4090 C.3   325  PHE325      0.1605
     40  C         47.2340  -23.2480   40.4190 C.2   325  PHE325      0.2264
     41  O         47.2060  -23.9820   41.3990 O.2   325  PHE325     -0.2867
     42  CB        49.5440  -22.3260   40.4380 C.3   325  PHE325      0.0534
     43  CG        49.9610  -23.2620   39.3520 C.ar  325  PHE325     -0.0203
     44  CD1       50.3680  -22.7740   38.1220 C.ar  325  PHE325     -0.0042
     45  CD2       49.9590  -24.6350   39.5640 C.ar  325  PHE325     -0.0042
     46  CE1       50.7580  -23.6410   37.1200 C.ar  325  PHE325     -0.0003
     47  CE2       50.3490  -25.5070   38.5650 C.ar  325  PHE325     -0.0003
     48  CZ        50.7460  -25.0110   37.3390 C.ar  325  PHE325     -0.0000
     49  N         46.2040  -26.6360   37.8460 N.3   327  ASN327     -0.1240
     50  CA        46.5320  -27.4000   36.6490 C.3   327  ASN327      0.1653
     51  C         45.8160  -28.7350   36.7160 C.2   327  ASN327      0.2266
     52  O         46.2890  -29.6660   37.3540 O.2   327  ASN327     -0.2867
     53  CB        48.0540  -27.5910   36.5470 C.3   327  ASN327      0.1155
     54  CG        48.4860  -28.4640   35.3590 C.2   327  ASN327      0.2627
     55  OD1       47.6620  -29.0510   34.6620 O.2   327  ASN327     -0.2716
     56  ND2       49.8090  -28.5510   35.1460 N.am  327  ASN327     -0.0877
     57  N         45.0790  -31.0490   34.1780 N.3   329  THR329     -0.1203
     58  CA        45.2660  -31.5710   32.8260 C.3   329  THR329      0.1994
     59  C         44.7290  -32.9890   32.6660 C.2   329  THR329      0.2617
     60  O         44.8720  -33.8310   33.5550 O.2   329  THR329     -0.2717
     61  CB        46.7580  -31.5690   32.4040 C.3   329  THR329      0.1784
     62  OG1       47.1120  -30.2960   31.8570 O.3   329  THR329     -0.2211
     63  CG2       47.0040  -32.6240   31.3510 C.3   329  THR329      0.0376
     64  N         44.1090  -33.2410   31.5220 N.am  330  GLN330     -0.1979
     65  CA        43.7170  -34.5870   31.1380 C.3   330  GLN330      0.1601
     66  C         42.8520  -35.3020   32.1730 C.2   330  GLN330      0.2287
     67  O         43.1960  -36.3720   32.6640 O.2   330  GLN330     -0.2864
     68  CB        44.9500  -35.4250   30.8150 C.3   330  GLN330      0.0394
     69  CG        44.6250  -36.7430   30.1270 C.3   330  GLN330      0.0908
     70  CD        45.8690  -37.4750   29.6850 C.2   330  GLN330      0.2608
     71  OE1       46.8000  -36.8680   29.1610 O.2   330  GLN330     -0.2717
     72  NE2       45.8970  -38.7840   29.8990 N.am  330  GLN330     -0.0878
     73  N         44.7060  -24.1170   34.4330 N.3   351  ILE351     -0.1245
     74  CA        44.9600  -24.9850   33.2900 C.3   351  ILE351      0.1561
     75  C         43.9540  -26.1290   33.2410 C.2   351  ILE351      0.2260
     76  O         43.8990  -26.9640   34.1420 O.2   351  ILE351     -0.2867
     77  CB        46.3940  -25.5520   33.3300 C.3   351  ILE351      0.0252
     78  CG1       47.4040  -24.4140   33.4750 C.3   351  ILE351      0.0019
     79  CG2       46.6840  -26.3570   32.0840 C.3   351  ILE351      0.0019
     80  CD1       48.8210  -24.8530   33.3300 C.3   351  ILE351      0.0001
     81  N         42.9250  -30.6390   27.9370 N.3   354  ARG354     -0.1245
     82  CA        42.6080  -32.0580   27.7610 C.3   354  ARG354      0.1563
     83  C         41.4470  -32.5350   28.6290 C.2   354  ARG354      0.2260
     84  O         41.5360  -33.5640   29.2940 O.2   354  ARG354     -0.2867
     85  CB        43.8470  -32.9450   27.9400 C.3   354  ARG354      0.0307
     86  CG        44.3920  -33.5340   26.6400 C.3   354  ARG354      0.0489
     87  CD        45.7980  -34.0660   26.8130 C.3   354  ARG354      0.2205
     88  NE        46.7210  -32.9840   27.1450 N.pl3 354  ARG354     -0.0865
     89  CZ        47.8100  -33.1300   27.8970 C.cat 354  ARG354      0.5346
     90  NH1       48.1110  -34.3200   28.4040 N.pl3 354  ARG354      0.1354
     91  NH2       48.5950  -32.0870   28.1540 N.pl3 354  ARG354      0.1354
@<TRIPOS>BOND
     1    86    87    1
     2    86    85    1
     3    87    88    1
     4    88    89    2
     5    82    81    1
     6    82    85    1
     7    82    83    1
     8    89    91    1
     9    89    90    1
    10    83    84    2
    11    71    70    2
    12    70    72   am
    13    70    69    1
    14    69    68    1
    15    68    65    1
    16    65    64    1
    17    65    66    1
    18    63    61    1
    19    64    59   am
    20    62    61    1
    21    79    77    1
    22    66    67    2
    23    61    58    1
    24    59    58    1
    25    59    60    2
    26    58    57    1
    27    36    35   ar
    28    37    35   ar
    29    75    74    1
    30    75    76    2
    31    35    34    1
    32    74    77    1
    33    74    73    1
    34    80    78    1
    35    77    78    1
    36    34    31    1
    37    17    15   ar
    38    31    30    1
    39    31    32    1
    40    55    54    2
    41    30    26   am
    42    56    54   am
    43    15    16   ar
    44    15    14    1
    45    32    33    2
    46    54    53    1
    47    28    29    1
    48    28    25    1
    49    26    25    1
    50    26    27    2
    51    14    13    1
    52    25    24    1
    53    53    50    1
    54    50    51    1
    55    50    49    1
    56    51    52    2
    57    46    48   ar
    58    46    44   ar
    59    48    47   ar
    60    13    10    1
    61    11    10    1
    62    11    12    2
    63    44    43   ar
    64    10     9    1
    65    47    45   ar
    66    23    22    1
    67    43    45   ar
    68    43    42    1
    69    22    19    1
    70     7     8    1
    71     7     6    1
    72    19    20    1
    73    19    18    1
    74     6     5    1
    75    20    21    2
    76    39    40    1
    77    39    42    1
    78    39    38    1
    79    40    41    2
    80     5     2    1
    81     3     2    1
    82     3     4    2
    83     2     1    1
