@<TRIPOS>MOLECULE
tmp/3a79B06.pdb
 119 110 0 0 0
SMALL
GASTEIGER

@<TRIPOS>ATOM
      1  N         43.5390  -27.9600   30.1980 N.3   353  GLN353     -0.1245
      2  CA        43.8800  -28.6740   28.9740 C.3   353  GLN353      0.1566
      3  C         43.5630  -30.1700   28.9960 C.2   353  GLN353      0.2260
      4  O         43.9000  -30.8800   29.9330 O.2   353  GLN353     -0.2867
      5  CB        45.3570  -28.4730   28.6540 C.3   353  GLN353      0.0367
      6  CG        45.9600  -29.5950   27.8510 C.3   353  GLN353      0.0905
      7  CD        47.2960  -29.2080   27.2550 C.2   353  GLN353      0.2608
      8  OE1       47.9270  -29.9950   26.5390 O.2   353  GLN353     -0.2717
      9  NE2       47.7340  -27.9800   27.5390 N.am  353  GLN353     -0.0878
     10  N         44.4690  -21.7320   30.1020 N.3   377  ASP377     -0.1239
     11  CA        44.6030  -22.7200   29.0480 C.3   377  ASP377      0.1674
     12  C         43.4330  -23.6920   29.0570 C.2   377  ASP377      0.2266
     13  O         43.4200  -24.6480   29.8220 O.2   377  ASP377     -0.2867
     14  CB        45.9140  -23.4970   29.1610 C.3   377  ASP377      0.1410
     15  CG        46.0340  -24.5850   28.0930 C.2   377  ASP377      0.3668
     16  OD1       45.2830  -24.5180   27.0950 O.co2 377  ASP377     -0.2456
     17  OD2       46.8660  -25.5100   28.2410 O.co2 377  ASP377     -0.2456
     18  N         42.7150  -25.4200   26.2940 N.3   379  SER379     -0.1202
     19  CA        42.9650  -26.0780   25.0130 C.3   379  SER379      0.2020
     20  C         42.6410  -27.5720   25.0470 C.2   379  SER379      0.2618
     21  O         42.3360  -28.1320   26.0950 O.2   379  SER379     -0.2717
     22  CB        44.4160  -25.8790   24.5800 C.3   379  SER379      0.2103
     23  OG        45.2420  -26.9130   25.0760 O.3   379  SER379     -0.2182
     24  N         42.7110  -28.2080   23.8880 N.am  380  LEU380     -0.1979
     25  CA        42.4290  -29.6280   23.7650 C.3   380  LEU380      0.1596
     26  C         41.1630  -30.1030   24.4860 C.2   380  LEU380      0.2287
     27  O         41.0760  -31.2560   24.9180 O.2   380  LEU380     -0.2864
     28  CB        43.6620  -30.4620   24.1370 C.3   380  LEU380      0.0297
     29  CG        44.5620  -30.7060   22.9110 C.3   380  LEU380      0.0022
     30  CD1       46.0280  -30.9010   23.2620 C.3   380  LEU380      0.0001
     31  CD2       44.0420  -31.8640   22.0610 C.3   380  LEU380      0.0001
     32  N         46.9800  -14.1720   28.6690 N.3   400  VAL400     -0.1245
     33  CA        47.2830  -15.3200   27.8300 C.3   400  VAL400      0.1561
     34  C         46.1230  -16.3050   27.8340 C.2   400  VAL400      0.2260
     35  O         45.6820  -16.7680   28.8780 O.2   400  VAL400     -0.2867
     36  CB        48.5540  -16.0260   28.3000 C.3   400  VAL400      0.0252
     37  CG1       48.9660  -17.0880   27.2890 C.3   400  VAL400      0.0019
     38  CG2       49.6620  -14.9980   28.5290 C.3   400  VAL400      0.0019
     39  N         44.9800  -19.7090   25.8540 N.3   402  ASN402     -0.1240
     40  CA        45.0920  -20.8010   24.8980 C.3   402  ASN402      0.1653
     41  C         43.7270  -21.4330   24.6340 C.2   402  ASN402      0.2266
     42  O         43.1390  -22.0610   25.5210 O.2   402  ASN402     -0.2867
     43  CB        46.1240  -21.8490   25.3320 C.3   402  ASN402      0.1155
     44  CG        46.5550  -22.7410   24.1760 C.2   402  ASN402      0.2627
     45  OD1       45.7520  -23.4990   23.6320 O.2   402  ASN402     -0.2716
     46  ND2       47.8110  -22.6110   23.7570 N.am  402  ASN402     -0.0877
     47  N         43.4470  -23.1960   21.7680 N.3   404  SER404     -0.1202
     48  CA        43.8810  -24.0150   20.6390 C.3   404  SER404      0.2020
     49  C         43.3860  -25.4530   20.7210 C.2   404  SER404      0.2619
     50  O         43.3870  -26.0510   21.7880 O.2   404  SER404     -0.2717
     51  CB        45.4100  -23.9910   20.5240 C.3   404  SER404      0.2103
     52  OG        46.0110  -25.0710   21.2180 O.3   404  SER404     -0.2182
     53  N         42.9660  -25.9960   19.5830 N.am  405  SER405     -0.1951
     54  CA        42.5530  -27.4000   19.4610 C.3   405  SER405      0.1924
     55  C         41.1730  -27.7170   20.0270 C.2   405  SER405      0.2314
     56  O         41.0020  -28.6730   20.7830 O.2   405  SER405     -0.2863
     57  CB        43.5890  -28.3540   20.0620 C.3   405  SER405      0.2116
     58  OG        44.7650  -28.3890   19.2830 O.3   405  SER405     -0.2180
     59  N         48.1140  -12.5870   24.2390 N.3   422  VAL422     -0.1245
     60  CA        48.4330  -13.8100   23.4970 C.3   422  VAL422      0.1561
     61  C         47.1400  -14.5630   23.2400 C.2   422  VAL422      0.2260
     62  O         46.3260  -14.7220   24.1450 O.2   422  VAL422     -0.2867
     63  CB        49.4010  -14.7430   24.2690 C.3   422  VAL422      0.0252
     64  CG1       49.9240  -15.8300   23.3600 C.3   422  VAL422      0.0019
     65  CG2       50.5590  -13.9620   24.8600 C.3   422  VAL422      0.0019
     66  N         46.1310  -18.0800   21.3520 N.3   424  ASP424     -0.1239
     67  CA        46.3960  -19.2780   20.5620 C.3   424  ASP424      0.1674
     68  C         45.1130  -20.0020   20.1320 C.2   424  ASP424      0.2266
     69  O         44.5310  -20.7710   20.8950 O.2   424  ASP424     -0.2867
     70  CB        47.3350  -20.2320   21.3030 C.3   424  ASP424      0.1410
     71  CG        47.9920  -21.2330   20.3690 C.2   424  ASP424      0.3668
     72  OD1       47.2960  -21.7190   19.4540 O.co2 424  ASP424     -0.2456
     73  OD2       49.2000  -21.5200   20.5290 O.co2 424  ASP424     -0.2456
     74  N         44.9240  -21.9370   17.2470 N.3   426  HIS426     -0.1226
     75  CA        45.2580  -22.9070   16.2110 C.3   426  HIS426      0.1752
     76  C         44.5140  -24.2210   16.3900 C.2   426  HIS426      0.2596
     77  O         44.0710  -24.5560   17.4800 O.2   426  HIS426     -0.2718
     78  CB        46.7710  -23.1470   16.1230 C.3   426  HIS426      0.0759
     79  CG        47.2960  -24.1490   17.1060 C.ar  426  HIS426      0.0818
     80  ND1       47.9420  -23.7830   18.2670 N.ar  426  HIS426     -0.2268
     81  CD2       47.2970  -25.5020   17.0850 C.ar  426  HIS426      0.1154
     82  CE1       48.3040  -24.8690   18.9280 C.ar  426  HIS426      0.1986
     83  NE2       47.9260  -25.9250   18.2330 N.ar  426  HIS426     -0.2212
     84  N         44.3820  -24.9550   15.2960 N.am  427  ASN427     -0.1974
     85  CA        43.6860  -26.2300   15.3050 C.3   427  ASN427      0.1688
     86  C         42.2060  -26.0780   15.6540 C.2   427  ASN427      0.2292
     87  O         41.6170  -26.9000   16.3560 O.2   427  ASN427     -0.2864
     88  CB        44.3870  -27.2190   16.2350 C.3   427  ASN427      0.1181
     89  CG        44.0500  -28.6590   15.9100 C.2   427  ASN427      0.2629
     90  OD1       43.5680  -28.9630   14.8190 O.2   427  ASN427     -0.2716
     91  ND2       44.3020  -29.5590   16.8600 N.am  427  ASN427     -0.0877
     92  N         50.9150  -11.7180   20.1740 N.3   445  GLU445     -0.1245
     93  CA        51.0270  -13.0080   19.5280 C.3   445  GLU445      0.1567
     94  C         49.6370  -13.4090   19.0810 C.2   445  GLU445      0.2260
     95  O         48.6360  -13.0270   19.6990 O.2   445  GLU445     -0.2867
     96  CB        51.6150  -14.0600   20.4700 C.3   445  GLU445      0.0388
     97  CG        53.0490  -13.7840   20.9150 C.3   445  GLU445      0.1160
     98  CD        53.7100  -15.0010   21.5490 C.2   445  GLU445      0.3649
     99  OE1       53.2940  -16.1410   21.2310 O.co2 445  GLU445     -0.2457
    100  OE2       54.6480  -14.8160   22.3580 O.co2 445  GLU445     -0.2457
    101  N         50.5330  -16.6080   13.3510 N.3   471  TRP471     -0.1241
    102  CA        50.6570  -17.8700   12.6430 C.3   471  TRP471      0.1605
    103  C         49.5260  -17.9980   11.6310 C.2   471  TRP471      0.2264
    104  O         48.3780  -18.2570   12.0000 O.2   471  TRP471     -0.2867
    105  CB        50.6360  -19.0410   13.6250 C.3   471  TRP471      0.0550
    106  CG        51.9340  -19.2600   14.3460 C.ar  471  TRP471      0.0003
    107  CD1       52.8590  -20.2270   14.0840 C.ar  471  TRP471      0.0946
    108  CD2       52.4430  -18.5040   15.4530 C.ar  471  TRP471      0.0152
    109  NE1       53.9160  -20.1190   14.9560 N.ar  471  TRP471     -0.2442
    110  CE2       53.6860  -19.0710   15.8080 C.ar  471  TRP471      0.0810
    111  CE3       51.9700  -17.4050   16.1800 C.ar  471  TRP471      0.0012
    112  CZ2       54.4630  -18.5730   16.8540 C.ar  471  TRP471      0.0191
    113  CZ3       52.7410  -16.9100   17.2110 C.ar  471  TRP471      0.0001
    114  CH2       53.9750  -17.4940   17.5410 C.ar  471  TRP471      0.0015
    115  N         56.9650  -23.9740   13.1610 N.3   502  ALA502     -0.1245
    116  CA        58.1230  -24.2980   13.9840 C.3   502  ALA502      0.1562
    117  C         58.3920  -23.1740   14.9700 C.2   502  ALA502      0.2260
    118  O         58.4950  -23.4100   16.1740 O.2   502  ALA502     -0.2867
    119  CB        59.3430  -24.5330   13.1140 C.3   502  ALA502      0.0290
@<TRIPOS>BOND
     1   103   104    2
     2   103   102    1
     3   102   101    1
     4   102   105    1
     5   119   116    1
     6   115   116    1
     7   105   106    1
     8   116   117    1
     9   107   106   ar
    10   107   109   ar
    11   106   108   ar
    12    90    89    2
    13   109   110   ar
    14   117   118    2
    15    84    85    1
    16    84    76   am
    17    85    86    1
    18    85    88    1
    19   108   110   ar
    20   108   111   ar
    21    86    87    2
    22   110   112   ar
    23    89    88    1
    24    89    91   am
    25    78    75    1
    26    78    79    1
    27   111   113   ar
    28    75    76    1
    29    75    74    1
    30    76    77    2
    31   112   114   ar
    32    81    79   ar
    33    81    83   ar
    34    79    80   ar
    35   113   114   ar
    36    83    82   ar
    37    80    82   ar
    38    94    93    1
    39    94    95    2
    40    58    57    1
    41    72    71   ar
    42    54    53    1
    43    54    55    1
    44    54    57    1
    45    93    92    1
    46    93    96    1
    47    53    49   am
    48    55    56    2
    49    68    67    1
    50    68    69    2
    51    71    73   ar
    52    71    70    1
    53    96    97    1
    54    51    48    1
    55    51    52    1
    56    67    70    1
    57    67    66    1
    58    48    49    1
    59    48    47    1
    60    49    50    2
    61    97    98    1
    62    99    98   ar
    63    98   100   ar
    64    31    29    1
    65    29    30    1
    66    29    28    1
    67    61    60    1
    68    61    62    2
    69    64    63    1
    70    60    59    1
    71    60    63    1
    72    45    44    2
    73    46    44   am
    74    25    24    1
    75    25    28    1
    76    25    26    1
    77    24    20   am
    78    44    43    1
    79    63    65    1
    80    26    27    2
    81    22    19    1
    82    22    23    1
    83    41    40    1
    84    41    42    2
    85    40    43    1
    86    40    39    1
    87    19    20    1
    88    19    18    1
    89    20    21    2
    90     8     7    2
    91    16    15   ar
    92     7     9   am
    93     7     6    1
    94    37    36    1
    95    33    34    1
    96    33    36    1
    97    33    32    1
    98    34    35    2
    99     6     5    1
   100    15    17   ar
   101    15    14    1
   102    36    38    1
   103     5     2    1
   104     2     3    1
   105     2     1    1
   106     3     4    2
   107    11    12    1
   108    11    14    1
   109    11    10    1
   110    12    13    2
