@<TRIPOS>MOLECULE
tmp/3a79A03.pdb
 123 113 0 0 0
SMALL
GASTEIGER

@<TRIPOS>ATOM
      1  N         29.3580  -42.7530   20.7770 N.3   370  SER370     -0.1217
      2  CA        29.9770  -41.7170   19.9770 C.3   370  SER370      0.1889
      3  C         30.2670  -40.5030   20.8330 C.2   370  SER370      0.2288
      4  O         29.5810  -40.2380   21.8180 O.2   370  SER370     -0.2866
      5  CB        29.0670  -41.3020   18.8250 C.3   370  SER370      0.2089
      6  OG        29.7000  -40.3420   17.9900 O.3   370  SER370     -0.2183
      7  N         29.1450  -48.4800   18.1040 N.3   394  ASP394     -0.1239
      8  CA        29.5090  -47.1950   17.5150 C.3   394  ASP394      0.1674
      9  C         30.3430  -46.4230   18.5050 C.2   394  ASP394      0.2266
     10  O         29.8100  -45.8480   19.4520 O.2   394  ASP394     -0.2867
     11  CB        28.2640  -46.3710   17.1550 C.3   394  ASP394      0.1410
     12  CG        28.6100  -44.9990   16.5560 C.2   394  ASP394      0.3668
     13  OD1       27.6910  -44.2790   16.0830 O.co2 394  ASP394     -0.2456
     14  OD2       29.8100  -44.6420   16.5570 O.co2 394  ASP394     -0.2456
     15  N         32.4350  -44.0010   17.3900 N.3   396  SER396     -0.1202
     16  CA        32.8850  -42.9060   16.5300 C.3   396  SER396      0.2020
     17  C         33.0860  -41.5880   17.2780 C.2   396  SER396      0.2618
     18  O         32.7620  -41.4720   18.4580 O.2   396  SER396     -0.2717
     19  CB        31.8860  -42.6850   15.3980 C.3   396  SER396      0.2103
     20  OG        30.6690  -42.1440   15.8860 O.3   396  SER396     -0.2182
     21  N         33.5980  -40.5920   16.5660 N.am  397  ARG397     -0.1979
     22  CA        33.9300  -39.2880   17.1460 C.3   397  ARG397      0.1597
     23  C         34.6940  -39.3690   18.4900 C.2   397  ARG397      0.2287
     24  O         34.5370  -38.5180   19.3600 O.2   397  ARG397     -0.2864
     25  CB        32.6970  -38.3610   17.2150 C.3   397  ARG397      0.0334
     26  CG        32.0480  -38.0690   15.8570 C.3   397  ARG397      0.0492
     27  CD        31.2240  -36.7640   15.8310 C.3   397  ARG397      0.2205
     28  NE        30.1070  -36.8360   14.8720 N.pl3 397  ARG397     -0.0865
     29  CZ        29.3670  -35.8010   14.4580 C.cat 397  ARG397      0.5346
     30  NH1       29.6120  -34.5660   14.9020 N.pl3 397  ARG397      0.1354
     31  NH2       28.3770  -36.0040   13.5910 N.pl3 397  ARG397      0.1354
     32  N         28.6750  -54.8280   13.2040 N.3   415  PHE415     -0.1241
     33  CA        28.7140  -53.4250   12.7990 C.3   415  PHE415      0.1605
     34  C         29.6490  -52.6440   13.7040 C.2   415  PHE415      0.2264
     35  O         29.4420  -52.6000   14.9100 O.2   415  PHE415     -0.2867
     36  CB        27.3050  -52.8180   12.8400 C.3   415  PHE415      0.0534
     37  CG        27.2570  -51.3470   12.5100 C.ar  415  PHE415     -0.0203
     38  CD1       26.5730  -50.8960   11.3960 C.ar  415  PHE415     -0.0042
     39  CD2       27.8820  -50.4140   13.3210 C.ar  415  PHE415     -0.0042
     40  CE1       26.5180  -49.5450   11.0920 C.ar  415  PHE415     -0.0003
     41  CE2       27.8350  -49.0650   13.0210 C.ar  415  PHE415     -0.0003
     42  CZ        27.1550  -48.6340   11.9050 C.ar  415  PHE415     -0.0000
     43  N         31.4070  -48.7330   13.8870 N.3   417  ASN417     -0.1240
     44  CA        31.5370  -47.3990   13.3190 C.3   417  ASN417      0.1653
     45  C         32.7130  -46.7050   13.9910 C.2   417  ASN417      0.2266
     46  O         32.6670  -46.4360   15.1780 O.2   417  ASN417     -0.2867
     47  CB        30.2300  -46.6270   13.5100 C.3   417  ASN417      0.1155
     48  CG        30.1950  -45.3000   12.7530 C.2   417  ASN417      0.2627
     49  OD1       31.2410  -44.7310   12.4120 O.2   417  ASN417     -0.2716
     50  ND2       28.9690  -44.7910   12.5070 N.am  417  ASN417     -0.0877
     51  N         34.1540  -43.9150   12.4900 N.3   419  SER419     -0.1202
     52  CA        34.2430  -42.6770   11.7260 C.3   419  SER419      0.2020
     53  C         34.7390  -41.5000   12.5630 C.2   419  SER419      0.2619
     54  O         34.6140  -41.4930   13.7870 O.2   419  SER419     -0.2717
     55  CB        32.8790  -42.3450   11.1110 C.3   419  SER419      0.2103
     56  OG        32.8780  -41.0540   10.5270 O.3   419  SER419     -0.2182
     57  N         35.3060  -40.5060   11.8890 N.am  420  SER420     -0.1951
     58  CA        35.6860  -39.2550   12.5360 C.3   420  SER420      0.1924
     59  C         36.5300  -39.5020   13.7910 C.2   420  SER420      0.2314
     60  O         36.5340  -38.7150   14.7340 O.2   420  SER420     -0.2863
     61  CB        34.4320  -38.4480   12.8660 C.3   420  SER420      0.2116
     62  OG        33.5300  -38.4690   11.7680 O.3   420  SER420     -0.2180
     63  N         29.8820  -54.6610    8.4430 N.3   436  VAL436     -0.1245
     64  CA        29.8770  -53.2370    8.1230 C.3   436  VAL436      0.1561
     65  C         30.9830  -52.5120    8.8620 C.2   436  VAL436      0.2260
     66  O         31.1330  -52.6560   10.0700 O.2   436  VAL436     -0.2867
     67  CB        28.5480  -52.5590    8.4800 C.3   436  VAL436      0.0252
     68  CG1       28.6190  -51.0730    8.1300 C.3   436  VAL436      0.0019
     69  CG2       27.3890  -53.2410    7.7630 C.3   436  VAL436      0.0019
     70  N         32.8000  -48.5700    9.1360 N.3   438  ASP438     -0.1239
     71  CA        32.8080  -47.1760    8.7420 C.3   438  ASP438      0.1674
     72  C         34.0610  -46.6160    9.3370 C.2   438  ASP438      0.2266
     73  O         34.1820  -46.5370   10.5500 O.2   438  ASP438     -0.2867
     74  CB        31.5800  -46.4240    9.2640 C.3   438  ASP438      0.1410
     75  CG        31.5140  -44.9940    8.7460 C.2   438  ASP438      0.3668
     76  OD1       32.5760  -44.4620    8.3540 O.co2 438  ASP438     -0.2456
     77  OD2       30.4080  -44.3990    8.7280 O.co2 438  ASP438     -0.2456
     78  N         35.4540  -43.7080    7.8970 N.3   440  SER440     -0.1202
     79  CA        35.5330  -42.4790    7.1070 C.3   440  SER440      0.2020
     80  C         36.0020  -41.2720    7.9170 C.2   440  SER440      0.2618
     81  O         36.1850  -41.3560    9.1300 O.2   440  SER440     -0.2717
     82  CB        34.1890  -42.1790    6.4280 C.3   440  SER440      0.2103
     83  OG        33.2000  -41.8100    7.3660 O.3   440  SER440     -0.2182
     84  N         36.2010  -40.1540    7.2280 N.am  441  ASN441     -0.1974
     85  CA        36.6360  -38.9150    7.8580 C.3   441  ASN441      0.1688
     86  C         37.8130  -39.1100    8.8100 C.2   441  ASN441      0.2292
     87  O         37.7780  -38.6540    9.9540 O.2   441  ASN441     -0.2864
     88  CB        35.4680  -38.2480    8.5890 C.3   441  ASN441      0.1181
     89  CG        35.7730  -36.8140    8.9990 C.2   441  ASN441      0.2629
     90  OD1       36.7710  -36.2290    8.5720 O.2   441  ASN441     -0.2716
     91  ND2       34.9070  -36.2410    9.8300 N.am  441  ASN441     -0.0877
     92  N         29.3140  -53.7260    3.5690 N.3   456  GLU456     -0.1245
     93  CA        29.5110  -52.2900    3.3950 C.3   456  GLU456      0.1567
     94  C         30.8730  -51.8370    3.9050 C.2   456  GLU456      0.2260
     95  O         31.4190  -52.4220    4.8360 O.2   456  GLU456     -0.2867
     96  CB        28.3930  -51.5090    4.0910 C.3   456  GLU456      0.0388
     97  CG        26.9990  -52.0050    3.7280 C.3   456  GLU456      0.1160
     98  CD        25.9110  -51.0080    4.0620 C.2   456  GLU456      0.3649
     99  OE1       26.2410  -49.8880    4.5160 O.co2 456  GLU456     -0.2457
    100  OE2       24.7250  -51.3500    3.8630 O.co2 456  GLU456     -0.2457
    101  N         32.0550  -47.9760    4.3910 N.3   458  TYR458     -0.1241
    102  CA        32.1090  -46.5210    4.3450 C.3   458  TYR458      0.1605
    103  C         33.5100  -46.0650    4.7470 C.2   458  TYR458      0.2264
    104  O         33.9410  -46.2840    5.8760 O.2   458  TYR458     -0.2867
    105  CB        31.0180  -45.9070    5.2390 C.3   458  TYR458      0.0534
    106  CG        29.6240  -45.9760    4.6280 C.ar  458  TYR458     -0.0201
    107  CD1       28.8790  -47.1550    4.6530 C.ar  458  TYR458     -0.0009
    108  CD2       29.0590  -44.8630    4.0120 C.ar  458  TYR458     -0.0009
    109  CE1       27.6050  -47.2160    4.0800 C.ar  458  TYR458      0.0417
    110  CE2       27.7910  -44.9170    3.4340 C.ar  458  TYR458      0.0417
    111  CZ        27.0700  -46.0900    3.4720 C.ar  458  TYR458      0.1957
    112  OH        25.8150  -46.1260    2.9010 O.3   458  TYR458     -0.2866
    113  N         36.0350  -39.3090    2.8740 N.3   461  ARG461     -0.1245
    114  CA        36.8780  -38.2540    3.4340 C.3   461  ARG461      0.1563
    115  C         38.1930  -38.7540    4.0540 C.2   461  ARG461      0.2260
    116  O         38.4480  -38.5600    5.2440 O.2   461  ARG461     -0.2867
    117  CB        36.0810  -37.4130    4.4370 C.3   461  ARG461      0.0307
    118  CG        34.7730  -36.8560    3.8840 C.3   461  ARG461      0.0489
    119  CD        33.9250  -36.2440    4.9900 C.3   461  ARG461      0.2205
    120  NE        34.6720  -35.2490    5.7590 N.pl3 461  ARG461     -0.0865
    121  CZ        34.2780  -34.7500    6.9290 C.cat 461  ARG461      0.5346
    122  NH1       33.1400  -35.1550    7.4790 N.pl3 461  ARG461      0.1354
    123  NH2       35.0250  -33.8470    7.5560 N.pl3 461  ARG461      0.1354
@<TRIPOS>BOND
     1   113   114    1
     2   112   111    1
     3    93    92    1
     4    93    94    1
     5    93    96    1
     6   114   115    1
     7   114   117    1
     8   110   111   ar
     9   110   108   ar
    10   111   109   ar
    11    97    98    1
    12    97    96    1
    13   100    98   ar
    14   118   117    1
    15   118   119    1
    16    94    95    2
    17   108   106   ar
    18   115   116    2
    19    98    99   ar
    20   109   107   ar
    21   102   101    1
    22   102   103    1
    23   102   105    1
    24   106   107   ar
    25   106   105    1
    26   103   104    2
    27   119   120    1
    28   120   121    2
    29    82    79    1
    30    82    83    1
    31   121   122    1
    32   121   123    1
    33    79    78    1
    34    79    80    1
    35    84    85    1
    36    84    80   am
    37    69    67    1
    38    85    88    1
    39    85    86    1
    40    80    81    2
    41    64    63    1
    42    64    67    1
    43    64    65    1
    44    68    67    1
    45    76    75   ar
    46    90    89    2
    47    88    89    1
    48    77    75   ar
    49    71    70    1
    50    71    74    1
    51    71    72    1
    52    75    74    1
    53    86    87    2
    54    65    66    2
    55    89    91   am
    56    72    73    2
    57    56    55    1
    58    40    38   ar
    59    40    42   ar
    60    55    52    1
    61    38    37   ar
    62    52    51    1
    63    52    53    1
    64    62    61    1
    65    57    58    1
    66    57    53   am
    67    42    41   ar
    68    49    48    2
    69    50    48   am
    70    37    36    1
    71    37    39   ar
    72    58    61    1
    73    58    59    1
    74    53    54    2
    75    48    47    1
    76    33    36    1
    77    33    32    1
    78    33    34    1
    79    41    39   ar
    80    44    47    1
    81    44    43    1
    82    44    45    1
    83    31    29    1
    84    34    35    2
    85    59    60    2
    86    45    46    2
    87    29    28    2
    88    29    30    1
    89    28    27    1
    90    19    20    1
    91    19    16    1
    92    27    26    1
    93    26    25    1
    94    13    12   ar
    95    16    17    1
    96    16    15    1
    97    12    14   ar
    98    12    11    1
    99    21    22    1
   100    21    17   am
   101    22    25    1
   102    22    23    1
   103    11     8    1
   104    17    18    2
   105     8     7    1
   106     8     9    1
   107     6     5    1
   108    23    24    2
   109     9    10    2
   110     5     2    1
   111     2     1    1
   112     2     3    1
   113     3     4    2
