@<TRIPOS>MOLECULE
tmp/3a79B03.pdb
 85 79 0 0 0
SMALL
GASTEIGER

@<TRIPOS>ATOM
      1  N         57.2340  -54.9380   45.6250 N.3   173  PRO173     -0.2102
      2  CA        56.1960  -54.4090   44.7390 C.3   173  PRO173      0.1504
      3  C         54.9120  -55.2280   44.7780 C.2   173  PRO173      0.2575
      4  O         53.9990  -54.9620   43.9920 O.2   173  PRO173     -0.2718
      5  CB        56.8280  -54.5560   43.3480 C.3   173  PRO173      0.0282
      6  CG        58.0950  -55.3880   43.5470 C.3   173  PRO173      0.0208
      7  CD        58.0600  -55.9330   44.9310 C.3   173  PRO173      0.0893
      8  N         54.8460  -56.2090   45.6700 N.am  174  ASN174     -0.1975
      9  CA        53.7360  -57.1450   45.6670 C.3   174  ASN174      0.1688
     10  C         53.2540  -57.5120   47.0460 C.2   174  ASN174      0.2292
     11  O         53.0400  -58.6880   47.3450 O.2   174  ASN174     -0.2864
     12  CB        54.1280  -58.4200   44.9350 C.3   174  ASN174      0.1181
     13  CG        53.8360  -58.3470   43.4750 C.2   174  ASN174      0.2629
     14  OD1       52.7560  -57.9090   43.0750 O.2   174  ASN174     -0.2716
     15  ND2       54.7960  -58.7690   42.6530 N.am  174  ASN174     -0.0877
     16  N         56.4720  -47.9980   45.3320 N.3   195  ASN195     -0.1240
     17  CA        55.7810  -49.2450   45.6620 C.3   195  ASN195      0.1653
     18  C         55.1950  -49.2190   47.0760 C.2   195  ASN195      0.2266
     19  O         55.6710  -49.9060   47.9820 O.2   195  ASN195     -0.2867
     20  CB        56.6960  -50.4630   45.4870 C.3   195  ASN195      0.1155
     21  CG        57.2580  -50.5980   44.0660 C.2   195  ASN195      0.2627
     22  OD1       56.8350  -49.9110   43.1300 O.2   195  ASN195     -0.2716
     23  ND2       58.2220  -51.5000   43.9090 N.am  195  ASN195     -0.0877
     24  N         51.8200  -49.9310   49.1230 N.3   197  LYS197     -0.1245
     25  CA        50.4810  -50.5160   49.1470 C.3   197  LYS197      0.1561
     26  C         49.9160  -50.4880   50.5600 C.2   197  LYS197      0.2260
     27  O         50.4440  -51.1470   51.4540 O.2   197  LYS197     -0.2867
     28  CB        50.5310  -51.9550   48.6470 C.3   197  LYS197      0.0271
     29  CG        49.2010  -52.6890   48.6480 C.3   197  LYS197      0.0035
     30  CD        49.4160  -54.1280   48.1870 C.3   197  LYS197      0.0206
     31  CE        48.1230  -54.8540   47.8480 C.3   197  LYS197      0.1093
     32  NZ        48.3940  -55.9800   46.9000 N.3   197  LYS197     -0.1314
     33  N         53.5610  -45.0050   42.7300 N.3   226  HIS226     -0.1241
     34  CA        52.8500  -46.2780   42.7800 C.3   226  HIS226      0.1621
     35  C         52.1490  -46.6070   44.1110 C.2   226  HIS226      0.2264
     36  O         52.1780  -47.7490   44.5620 O.2   226  HIS226     -0.2867
     37  CB        53.8150  -47.3840   42.3880 C.3   226  HIS226      0.0745
     38  CG        54.6840  -47.0130   41.2300 C.ar  226  HIS226      0.0817
     39  ND1       56.0540  -46.9010   41.3300 N.ar  226  HIS226     -0.2268
     40  CD2       54.3720  -46.6870   39.9540 C.ar  226  HIS226      0.1154
     41  CE1       56.5510  -46.5400   40.1610 C.ar  226  HIS226      0.1986
     42  NE2       55.5520  -46.4040   39.3100 N.ar  226  HIS226     -0.2212
     43  N         49.0480  -47.5060   46.1450 N.3   228  GLU228     -0.1245
     44  CA        47.6750  -47.9680   46.1540 C.3   228  GLU228      0.1567
     45  C         47.2160  -47.8830   47.5790 C.2   228  GLU228      0.2260
     46  O         47.8200  -48.4890   48.4580 O.2   228  GLU228     -0.2867
     47  CB        47.5800  -49.4160   45.7100 C.3   228  GLU228      0.0388
     48  CG        46.3560  -50.1020   46.2730 C.3   228  GLU228      0.1160
     49  CD        46.4690  -51.6070   46.2480 C.2   228  GLU228      0.3649
     50  OE1       45.9950  -52.2520   47.2180 O.co2 228  GLU228     -0.2457
     51  OE2       47.0380  -52.1340   45.2650 O.co2 228  GLU228     -0.2457
     52  N         50.9050  -42.0980   39.9360 N.3   253  ASN253     -0.1240
     53  CA        50.2570  -43.4090   39.8340 C.3   253  ASN253      0.1653
     54  C         49.6280  -43.8090   41.1790 C.2   253  ASN253      0.2266
     55  O         49.9610  -44.8310   41.7760 O.2   253  ASN253     -0.2867
     56  CB        51.2600  -44.4430   39.2790 C.3   253  ASN253      0.1155
     57  CG        50.7190  -45.8620   39.2210 C.2   253  ASN253      0.2627
     58  OD1       49.5100  -46.0960   39.1070 O.2   253  ASN253     -0.2716
     59  ND2       51.6470  -46.8290   39.2750 N.am  253  ASN253     -0.0877
     60  N         46.2970  -45.0460   43.3470 N.3   255  THR255     -0.1218
     61  CA        45.1160  -45.9100   43.1890 C.3   255  THR255      0.1862
     62  C         44.2090  -45.8880   44.4320 C.2   255  THR255      0.2287
     63  O         44.4910  -46.5720   45.4110 O.2   255  THR255     -0.2866
     64  CB        45.5200  -47.3820   42.9010 C.3   255  THR255      0.1770
     65  OG1       46.4680  -47.4340   41.8310 O.3   255  THR255     -0.2211
     66  CG2       44.3190  -48.2110   42.5350 C.3   255  THR255      0.0375
     67  N         48.1840  -39.1740   37.2170 N.3   279  HIS279     -0.1241
     68  CA        47.8450  -40.5590   36.9070 C.3   279  HIS279      0.1621
     69  C         47.1410  -41.2110   38.0730 C.2   279  HIS279      0.2264
     70  O         47.7790  -41.7790   38.9510 O.2   279  HIS279     -0.2867
     71  CB        49.0780  -41.3780   36.5280 C.3   279  HIS279      0.0745
     72  CG        48.7430  -42.7090   35.9350 C.ar  279  HIS279      0.0817
     73  ND1       47.8230  -42.8570   34.9200 N.ar  279  HIS279     -0.2268
     74  CD2       49.1910  -43.9530   36.2190 C.ar  279  HIS279      0.1154
     75  CE1       47.7190  -44.1330   34.6050 C.ar  279  HIS279      0.1986
     76  NE2       48.5420  -44.8210   35.3760 N.ar  279  HIS279     -0.2212
     77  N         44.2470  -43.9040   39.1640 N.3   281  LYS281     -0.1196
     78  CA        43.2950  -44.9670   38.8730 C.3   281  LYS281      0.1781
     79  C         42.3360  -44.9830   40.1090 C.2   281  LYS281      0.2306
     80  O         42.7890  -44.8440   41.2430 O.2   281  LYS281     -0.2863
     81  CB        44.0230  -46.3310   38.5390 C.2   281  LYS281      0.0004
     82  CG        45.4910  -46.2610   37.8040 C.2   281  LYS281     -0.0013
     83  CD        46.0520  -47.6080   37.0870 C.2   281  LYS281      0.0192
     84  CE        47.4970  -47.4690   36.3750 C.2   281  LYS281      0.1057
     85  NZ        48.1430  -48.5420   35.3990 N.pl3 281  LYS281     -0.1266
@<TRIPOS>BOND
     1    75    73   ar
     2    75    76   ar
     3    73    72   ar
     4    76    74   ar
     5    85    84    1
     6    72    74   ar
     7    72    71    1
     8    84    83    2
     9    71    68    1
    10    68    67    1
    11    68    69    1
    12    83    82    1
    13    82    81    2
    14    69    70    2
    15    81    78    1
    16    78    77    1
    17    78    79    1
    18    58    57    2
    19    57    59   am
    20    57    56    1
    21    56    53    1
    22    42    40   ar
    23    42    41   ar
    24    53    52    1
    25    53    54    1
    26    40    38   ar
    27    79    80    2
    28    41    39   ar
    29    54    55    2
    30    38    39   ar
    31    38    37    1
    32    65    64    1
    33    37    34    1
    34    66    64    1
    35    15    13   am
    36    33    34    1
    37    34    35    1
    38    64    61    1
    39    14    13    2
    40    22    21    2
    41    61    60    1
    42    61    62    1
    43     5     6    1
    44     5     2    1
    45    13    12    1
    46     6     7    1
    47    23    21   am
    48     4     3    2
    49    21    20    1
    50    35    36    2
    51    62    63    2
    52     2     3    1
    53     2     1    1
    54     3     8   am
    55     7     1    1
    56    12     9    1
    57    51    49   ar
    58    16    17    1
    59    20    17    1
    60    17    18    1
    61     9     8    1
    62     9    10    1
    63    47    44    1
    64    47    48    1
    65    43    44    1
    66    44    45    1
    67    49    48    1
    68    49    50   ar
    69    32    31    1
    70    10    11    2
    71    18    19    2
    72    45    46    2
    73    31    30    1
    74    30    29    1
    75    28    29    1
    76    28    25    1
    77    24    25    1
    78    25    26    1
    79    26    27    2
