@<TRIPOS>MOLECULE
tmp/3a7aC00.pdb
 124 116 0 0 0
SMALL
GASTEIGER

@<TRIPOS>ATOM
      1  N         24.8380   31.0230    7.9390 N.3    17  LEU17      -0.1245
      2  CA        25.0880   29.5930    7.7820 C.3    17  LEU17       0.1561
      3  C         24.8550   29.1370    6.3500 C.2    17  LEU17       0.2260
      4  O         25.5430   28.2420    5.8570 O.2    17  LEU17      -0.2867
      5  CB        24.2250   28.7800    8.7480 C.3    17  LEU17       0.0270
      6  CG        24.7810   28.6410   10.1660 C.3    17  LEU17       0.0019
      7  CD1       23.7890   27.9280   11.0730 C.3    17  LEU17       0.0001
      8  CD2       26.1150   27.9090   10.1410 C.3    17  LEU17       0.0001
      9  N         32.2450   36.3520   10.4670 N.3    37  TRP37      -0.1241
     10  CA        30.8270   36.6060   10.6960 C.3    37  TRP37       0.1605
     11  C         30.4820   36.4570   12.1690 C.2    37  TRP37       0.2264
     12  O         31.2380   35.8620   12.9370 O.2    37  TRP37      -0.2867
     13  CB        29.9860   35.6220    9.8770 C.3    37  TRP37       0.0550
     14  CG        30.3910   34.1850   10.0750 C.ar   37  TRP37       0.0003
     15  CD1       31.6300   33.6480    9.8710 C.ar   37  TRP37       0.0946
     16  CD2       29.5550   33.1040   10.5060 C.ar   37  TRP37       0.0152
     17  NE1       31.6180   32.3040   10.1520 N.ar   37  TRP37      -0.2442
     18  CE2       30.3560   31.9450   10.5430 C.ar   37  TRP37       0.0810
     19  CE3       28.2070   33.0040   10.8640 C.ar   37  TRP37       0.0012
     20  CZ2       29.8540   30.7040   10.9240 C.ar   37  TRP37       0.0191
     21  CZ3       27.7130   31.7710   11.2420 C.ar   37  TRP37       0.0001
     22  CH2       28.5330   30.6380   11.2690 C.ar   37  TRP37       0.0015
     23  N         23.8190   27.7400   18.4380 N.3    44  VAL44      -0.1245
     24  CA        24.1850   26.8840   17.3170 C.3    44  VAL44       0.1561
     25  C         24.5290   25.4720   17.7730 C.2    44  VAL44       0.2260
     26  O         25.5200   25.2580   18.4700 O.2    44  VAL44      -0.2867
     27  CB        25.3770   27.4620   16.5390 C.3    44  VAL44       0.0252
     28  CG1       25.7940   26.5130   15.4310 C.3    44  VAL44       0.0019
     29  CG2       25.0220   28.8220   15.9730 C.3    44  VAL44       0.0019
     30  N         23.8600   23.6400   12.6510 N.3    70  ARG70      -0.1245
     31  CA        24.9310   23.7520   11.6630 C.3    70  ARG70       0.1563
     32  C         25.2070   22.4150   10.9790 C.2    70  ARG70       0.2260
     33  O         24.6760   21.3810   11.3810 O.2    70  ARG70      -0.2867
     34  CB        26.2040   24.3170   12.2980 C.3    70  ARG70       0.0307
     35  CG        26.7840   23.4690   13.4150 C.3    70  ARG70       0.0489
     36  CD        27.9880   24.1500   14.0470 C.3    70  ARG70       0.2205
     37  NE        28.6850   23.2720   14.9840 N.pl3  70  ARG70      -0.0865
     38  CZ        28.3870   23.1660   16.2760 C.cat  70  ARG70       0.5346
     39  NH1       27.4000   23.8850   16.7940 N.pl3  70  ARG70       0.1354
     40  NH2       29.0770   22.3390   17.0490 N.pl3  70  ARG70       0.1354
     41  N         29.7610   18.2760   16.4580 N.3    74  GLY74      -0.1210
     42  CA        30.0410   19.0100   17.6860 C.3    74  GLY74       0.1956
     43  C         28.8130   19.3480   18.5050 C.2    74  GLY74       0.2612
     44  O         27.6900   19.0090   18.1310 O.2    74  GLY74      -0.2717
     45  N         29.0390   20.0260   19.6270 N.am   75  GLY75      -0.1956
     46  CA        27.9770   20.3530   20.5710 C.3    75  GLY75       0.1869
     47  C         27.3940   21.7360   20.3660 C.2    75  GLY75       0.2309
     48  O         27.5290   22.3240   19.2950 O.2    75  GLY75      -0.2863
     49  N         26.7840   25.8080   21.1310 N.3    77  VAL77      -0.1245
     50  CA        27.3970   27.0400   21.6110 C.3    77  VAL77       0.1561
     51  C         26.4140   28.2090   21.5450 C.2    77  VAL77       0.2260
     52  O         25.3920   28.1380   20.8580 O.2    77  VAL77      -0.2867
     53  CB        28.6750   27.3880   20.8160 C.3    77  VAL77       0.0252
     54  CG1       29.6160   26.1970   20.7790 C.3    77  VAL77       0.0019
     55  CG2       28.3260   27.8410   19.4030 C.3    77  VAL77       0.0019
     56  N         25.7230   32.4040   20.8490 N.3    79  HIS79      -0.1241
     57  CA        26.2490   33.5450   20.0980 C.3    79  HIS79       0.1621
     58  C         25.5060   34.8610   20.3210 C.2    79  HIS79       0.2264
     59  O         24.2760   34.9060   20.3050 O.2    79  HIS79      -0.2867
     60  CB        26.2670   33.2400   18.5980 C.3    79  HIS79       0.0745
     61  CG        27.3050   32.2430   18.1970 C.ar   79  HIS79       0.0817
     62  ND1       27.0970   31.3130   17.2010 N.ar   79  HIS79      -0.2268
     63  CD2       28.5560   32.0220   18.6620 C.ar   79  HIS79       0.1154
     64  CE1       28.1780   30.5670   17.0650 C.ar   79  HIS79       0.1986
     65  NE2       29.0780   30.9750   17.9420 N.ar   79  HIS79      -0.2212
     66  N         32.7140   34.8110   14.9770 N.3    85  CYS85      -0.1235
     67  CA        32.8590   33.5430   14.2750 C.3    85  CYS85       0.1677
     68  C         33.8310   33.6530   13.1070 C.2    85  CYS85       0.2270
     69  O         33.8830   34.6720   12.4170 O.2    85  CYS85      -0.2867
     70  CB        31.5020   33.0490   13.7750 C.3    85  CYS85       0.0956
     71  SG        30.4140   32.4520   15.0770 S.3    85  CYS85      -0.0801
     72  N         38.9990   20.4440   20.0040 N.3   121  ASN121     -0.1240
     73  CA        38.1570   21.5560   19.5790 C.3   121  ASN121      0.1653
     74  C         38.2690   22.8070   20.4420 C.2   121  ASN121      0.2266
     75  O         37.4140   23.6890   20.3660 O.2   121  ASN121     -0.2867
     76  CB        36.6930   21.1150   19.5360 C.3   121  ASN121      0.1155
     77  CG        36.5080   19.7600   18.8830 C.2   121  ASN121      0.2627
     78  OD1       37.3290   18.8590   19.0500 O.2   121  ASN121     -0.2716
     79  ND2       35.4190   19.6060   18.1390 N.am  121  ASN121     -0.0877
     80  N         37.9600   28.4300   28.6070 N.3   133  LYS133     -0.1245
     81  CA        37.7110   28.2790   27.1780 C.3   133  LYS133      0.1561
     82  C         37.3690   29.6230   26.5390 C.2   133  LYS133      0.2260
     83  O         36.5490   30.3740   27.0660 O.2   133  LYS133     -0.2867
     84  CB        36.5560   27.2970   26.9670 C.3   133  LYS133      0.0271
     85  CG        36.3070   26.8890   25.5270 C.3   133  LYS133      0.0035
     86  CD        34.8300   26.6080   25.3030 C.3   133  LYS133      0.0206
     87  CE        34.6060   25.6680   24.1360 C.3   133  LYS133      0.1093
     88  NZ        34.8000   24.2500   24.5420 N.3   133  LYS133     -0.1314
     89  N         35.5900   27.5790   20.5560 N.3   136  GLY136     -0.1210
     90  CA        35.1320   26.2340   20.2420 C.3   136  GLY136      0.1956
     91  C         35.1470   26.0450   18.7390 C.2   136  GLY136      0.2613
     92  O         34.8580   26.9780   17.9930 O.2   136  GLY136     -0.2717
     93  N         35.4870   24.8410   18.2880 N.am  137  SER137     -0.1938
     94  CA        35.6130   24.5820   16.8590 C.3   137  SER137      0.2055
     95  C         34.8660   23.3330   16.4040 C.2   137  SER137      0.2642
     96  O         34.7510   22.3540   17.1420 O.2   137  SER137     -0.2714
     97  CB        37.0860   24.4800   16.4710 C.3   137  SER137      0.2130
     98  OG        37.7780   25.6620   16.8270 O.3   137  SER137     -0.2179
     99  N         34.3560   23.3820   15.1780 N.am  138  ALA138     -0.1977
    100  CA        33.7190   22.2320   14.5530 C.3   138  ALA138      0.1597
    101  C         34.2380   22.1130   13.1290 C.2   138  ALA138      0.2287
    102  O         34.5750   23.1180   12.5050 O.2   138  ALA138     -0.2864
    103  CB        32.2130   22.3920   14.5590 C.3   138  ALA138      0.0319
    104  N         35.4590   25.9200   11.1990 N.3   149  HIS149     -0.1226
    105  CA        34.8890   27.1460   11.7350 C.3   149  HIS149      0.1752
    106  C         34.8270   27.0830   13.2520 C.2   149  HIS149      0.2597
    107  O         34.5060   26.0430   13.8270 O.2   149  HIS149     -0.2718
    108  CB        33.5190   27.4440   11.1150 C.3   149  HIS149      0.0759
    109  CG        32.4710   26.4170   11.4150 C.ar  149  HIS149      0.0818
    110  ND1       31.1230   26.6780   11.2970 N.ar  149  HIS149     -0.2268
    111  CD2       32.5700   25.1360   11.8390 C.ar  149  HIS149      0.1154
    112  CE1       30.4360   25.6000   11.6270 C.ar  149  HIS149      0.1986
    113  NE2       31.2900   24.6510   11.9630 N.ar  149  HIS149     -0.2212
    114  N         35.1610   28.1970   13.8950 N.am  150  GLY150     -0.1942
    115  CA        35.2220   28.2480   15.3480 C.3   150  GLY150      0.2014
    116  C         34.6410   29.5210   15.9280 C.2   150  GLY150      0.2639
    117  O         33.9870   30.2950   15.2300 O.2   150  GLY150     -0.2714
    118  N         34.8880   29.7370   17.2160 N.am  151  THR151     -0.1950
    119  CA        34.3230   30.8780   17.9220 C.3   151  THR151      0.1897
    120  C         35.3850   31.6530   18.6830 C.2   151  THR151      0.2313
    121  O         36.5000   31.1720   18.8880 O.2   151  THR151     -0.2863
    122  CB        33.2500   30.4370   18.9310 C.3   151  THR151      0.1794
    123  OG1       33.8270   29.5180   19.8660 O.3   151  THR151     -0.2208
    124  CG2       32.0940   29.7600   18.2160 C.3   151  THR151      0.0378
@<TRIPOS>BOND
     1     4     3    2
     2     3     2    1
     3     2     1    1
     4     2     5    1
     5     5     6    1
     6    15    14   ar
     7    15    17   ar
     8    13    14    1
     9    13    10    1
    10    14    16   ar
    11     8     6    1
    12    17    18   ar
    13     6     7    1
    14     9    10    1
    15    16    18   ar
    16    16    19   ar
    17    18    20   ar
    18    10    11    1
    19    19    21   ar
    20    20    22   ar
    21    32    33    2
    22    32    31    1
    23   108   109    1
    24   108   105    1
    25   104   105    1
    26    21    22   ar
    27   110   109   ar
    28   110   112   ar
    29   109   111   ar
    30   112   113   ar
    31    31    34    1
    32    31    30    1
    33   105   106    1
    34   111   113   ar
    35    11    12    2
    36    34    35    1
    37    69    68    2
    38   102   101    2
    39    68    67    1
    40   101   100    1
    41   106   107    2
    42   106   114   am
    43    35    36    1
    44    70    67    1
    45    70    71    1
    46   114   115    1
    47    36    37    1
    48    67    66    1
    49   100   103    1
    50   100    99    1
    51    37    38    2
    52    99    95   am
    53   117   116    2
    54   115   116    1
    55    28    27    1
    56   116   118   am
    57    29    27    1
    58    38    39    1
    59    38    40    1
    60    95    94    1
    61    95    96    2
    62    41    42    1
    63    97    98    1
    64    97    94    1
    65    27    24    1
    66    94    93    1
    67    64    62   ar
    68    64    65   ar
    69    62    61   ar
    70   118   119    1
    71    24    25    1
    72    24    23    1
    73    42    43    1
    74    25    26    2
    75   119   120    1
    76   119   122    1
    77    65    63   ar
    78    92    91    2
    79    44    43    2
    80    79    77   am
    81    61    60    1
    82    61    63   ar
    83   124   122    1
    84    93    91   am
    85    43    45   am
    86    60    57    1
    87   120   121    2
    88    91    90    1
    89    77    78    2
    90    77    76    1
    91   122   123    1
    92    48    47    2
    93    55    53    1
    94    76    73    1
    95    73    72    1
    96    73    74    1
    97    45    46    1
    98    57    58    1
    99    57    56    1
   100    90    89    1
   101    59    58    2
   102    75    74    2
   103    47    46    1
   104    54    53    1
   105    53    50    1
   106    52    51    2
   107    49    50    1
   108    51    50    1
   109    87    88    1
   110    87    86    1
   111    86    85    1
   112    85    84    1
   113    82    83    2
   114    82    81    1
   115    84    81    1
   116    81    80    1
