@<TRIPOS>MOLECULE
tmp/3a7aC01.pdb
 169 159 0 0 0
SMALL
GASTEIGER

@<TRIPOS>ATOM
      1  N         23.8600   23.6400   12.6510 N.3    70  ARG70      -0.1245
      2  CA        24.9310   23.7520   11.6630 C.3    70  ARG70       0.1563
      3  C         25.2070   22.4150   10.9790 C.2    70  ARG70       0.2260
      4  O         24.6760   21.3810   11.3810 O.2    70  ARG70      -0.2867
      5  CB        26.2040   24.3170   12.2980 C.3    70  ARG70       0.0307
      6  CG        26.7840   23.4690   13.4150 C.3    70  ARG70       0.0489
      7  CD        27.9880   24.1500   14.0470 C.3    70  ARG70       0.2205
      8  NE        28.6850   23.2720   14.9840 N.pl3  70  ARG70      -0.0865
      9  CZ        28.3870   23.1660   16.2760 C.cat  70  ARG70       0.5346
     10  NH1       27.4000   23.8850   16.7940 N.pl3  70  ARG70       0.1354
     11  NH2       29.0770   22.3390   17.0490 N.pl3  70  ARG70       0.1354
     12  N         29.7610   18.2760   16.4580 N.3    74  GLY74      -0.1210
     13  CA        30.0410   19.0100   17.6860 C.3    74  GLY74       0.1956
     14  C         28.8130   19.3480   18.5050 C.2    74  GLY74       0.2612
     15  O         27.6900   19.0090   18.1310 O.2    74  GLY74      -0.2717
     16  N         29.0390   20.0260   19.6270 N.am   75  GLY75      -0.1942
     17  CA        27.9770   20.3530   20.5710 C.3    75  GLY75       0.2014
     18  C         27.3940   21.7360   20.3660 C.2    75  GLY75       0.2639
     19  O         27.5290   22.3240   19.2950 O.2    75  GLY75      -0.2714
     20  N         26.7520   22.2620   21.4020 N.am   76  ALA76      -0.1963
     21  CA        26.0120   23.5120   21.2820 C.3    76  ALA76       0.1728
     22  C         26.7430   24.7120   21.8810 C.2    76  ALA76       0.2616
     23  O         27.2450   24.6500   23.0040 O.2    76  ALA76      -0.2715
     24  CB        24.6430   23.3640   21.9150 C.3    76  ALA76       0.0334
     25  N         26.7840   25.8080   21.1310 N.am   77  VAL77      -0.1963
     26  CA        27.3970   27.0400   21.6110 C.3    77  VAL77       0.1727
     27  C         26.4140   28.2090   21.5450 C.2    77  VAL77       0.2616
     28  O         25.3920   28.1380   20.8580 O.2    77  VAL77      -0.2715
     29  CB        28.6750   27.3880   20.8160 C.3    77  VAL77       0.0290
     30  CG1       29.6160   26.1970   20.7790 C.3    77  VAL77       0.0023
     31  CG2       28.3260   27.8410   19.4030 C.3    77  VAL77       0.0023
     32  N         26.7310   29.2840   22.2600 N.am   78  PHE78      -0.1960
     33  CA        25.8650   30.4580   22.3060 C.3    78  PHE78       0.1771
     34  C         26.5090   31.6690   21.6330 C.2    78  PHE78       0.2619
     35  O         27.6940   31.9390   21.8370 O.2    78  PHE78      -0.2715
     36  CB        25.5130   30.7990   23.7530 C.3    78  PHE78       0.0574
     37  CG        24.8700   32.1420   23.9140 C.ar   78  PHE78      -0.0200
     38  CD1       23.5160   32.3080   23.6800 C.ar   78  PHE78      -0.0042
     39  CD2       25.6200   33.2420   24.2880 C.ar   78  PHE78      -0.0042
     40  CE1       22.9210   33.5430   23.8230 C.ar   78  PHE78      -0.0003
     41  CE2       25.0310   34.4810   24.4320 C.ar   78  PHE78      -0.0003
     42  CZ        23.6790   34.6320   24.1990 C.ar   78  PHE78      -0.0000
     43  N         25.7230   32.4040   20.8490 N.am   79  HIS79      -0.1973
     44  CA        26.2490   33.5450   20.0980 C.3    79  HIS79       0.1656
     45  C         25.5060   34.8610   20.3210 C.2    79  HIS79       0.2291
     46  O         24.2760   34.9060   20.3050 O.2    79  HIS79      -0.2864
     47  CB        26.2670   33.2400   18.5980 C.3    79  HIS79       0.0771
     48  CG        27.3050   32.2430   18.1970 C.ar   79  HIS79       0.0820
     49  ND1       27.0970   31.3130   17.2010 N.ar   79  HIS79      -0.2267
     50  CD2       28.5560   32.0220   18.6620 C.ar   79  HIS79       0.1154
     51  CE1       28.1780   30.5670   17.0650 C.ar   79  HIS79       0.1986
     52  NE2       29.0780   30.9750   17.9420 N.ar   79  HIS79      -0.2212
     53  N         30.3470   37.8100   20.4780 N.3    83  ASN83      -0.1240
     54  CA        31.1030   36.6430   20.0340 C.3    83  ASN83       0.1653
     55  C         31.3790   36.6650   18.5350 C.2    83  ASN83       0.2266
     56  O         30.4900   36.9650   17.7340 O.2    83  ASN83      -0.2867
     57  CB        30.3790   35.3530   20.4220 C.3    83  ASN83       0.1155
     58  CG        30.7190   34.1950   19.5030 C.2    83  ASN83       0.2627
     59  OD1       31.1910   33.1480   19.9490 O.2    83  ASN83      -0.2716
     60  ND2       30.4790   34.3790   18.2110 N.am   83  ASN83      -0.0877
     61  N         38.9990   20.4440   20.0040 N.3   121  ASN121     -0.1225
     62  CA        38.1570   21.5560   19.5790 C.3   121  ASN121      0.1785
     63  C         38.2690   22.8070   20.4420 C.2   121  ASN121      0.2597
     64  O         37.4140   23.6890   20.3660 O.2   121  ASN121     -0.2718
     65  CB        36.6930   21.1150   19.5360 C.3   121  ASN121      0.1169
     66  CG        36.5080   19.7600   18.8830 C.2   121  ASN121      0.2627
     67  OD1       37.3290   18.8590   19.0500 O.2   121  ASN121     -0.2716
     68  ND2       35.4190   19.6060   18.1390 N.am  121  ASN121     -0.0877
     69  N         39.3200   22.8980   21.2500 N.am  122  ASP122     -0.1974
     70  CA        39.3840   23.9530   22.2570 C.3   122  ASP122      0.1709
     71  C         40.6190   24.8370   22.2030 C.2   122  ASP122      0.2293
     72  O         41.7360   24.3610   22.0180 O.2   122  ASP122     -0.2864
     73  CB        39.2650   23.3500   23.6560 C.3   122  ASP122      0.1436
     74  CG        37.9150   22.7270   23.9030 C.2   122  ASP122      0.3671
     75  OD1       36.9050   23.3240   23.4780 O.co2 122  ASP122     -0.2456
     76  OD2       37.8640   21.6440   24.5220 O.co2 122  ASP122     -0.2456
     77  N         37.9600   28.4300   28.6070 N.3   133  LYS133     -0.1245
     78  CA        37.7110   28.2790   27.1780 C.3   133  LYS133      0.1561
     79  C         37.3690   29.6230   26.5390 C.2   133  LYS133      0.2260
     80  O         36.5490   30.3740   27.0660 O.2   133  LYS133     -0.2867
     81  CB        36.5560   27.2970   26.9670 C.3   133  LYS133      0.0271
     82  CG        36.3070   26.8890   25.5270 C.3   133  LYS133      0.0035
     83  CD        34.8300   26.6080   25.3030 C.3   133  LYS133      0.0206
     84  CE        34.6060   25.6680   24.1360 C.3   133  LYS133      0.1093
     85  NZ        34.8000   24.2500   24.5420 N.3   133  LYS133     -0.1314
     86  N         37.4410   29.6440   22.8000 N.3   135  SER135     -0.1202
     87  CA        37.0790   29.2590   21.4430 C.3   135  SER135      0.2020
     88  C         36.6320   27.8070   21.3480 C.2   135  SER135      0.2619
     89  O         37.2120   26.9200   21.9740 O.2   135  SER135     -0.2717
     90  CB        38.2500   29.4990   20.4870 C.3   135  SER135      0.2103
     91  OG        37.9880   28.9390   19.2100 O.3   135  SER135     -0.2182
     92  N         35.5900   27.5790   20.5560 N.am  136  GLY136     -0.1942
     93  CA        35.1320   26.2340   20.2420 C.3   136  GLY136      0.2014
     94  C         35.1470   26.0450   18.7390 C.2   136  GLY136      0.2639
     95  O         34.8580   26.9780   17.9930 O.2   136  GLY136     -0.2714
     96  N         35.4870   24.8410   18.2880 N.am  137  SER137     -0.1949
     97  CA        35.6130   24.5820   16.8590 C.3   137  SER137      0.1924
     98  C         34.8660   23.3330   16.4040 C.2   137  SER137      0.2314
     99  O         34.7510   22.3540   17.1420 O.2   137  SER137     -0.2863
    100  CB        37.0860   24.4800   16.4710 C.3   137  SER137      0.2116
    101  OG        37.7780   25.6620   16.8270 O.3   137  SER137     -0.2180
    102  N         34.8880   29.7370   17.2160 N.3   151  THR151     -0.1218
    103  CA        34.3230   30.8780   17.9220 C.3   151  THR151      0.1862
    104  C         35.3850   31.6530   18.6830 C.2   151  THR151      0.2287
    105  O         36.5000   31.1720   18.8880 O.2   151  THR151     -0.2866
    106  CB        33.2500   30.4370   18.9310 C.3   151  THR151      0.1770
    107  OG1       33.8270   29.5180   19.8660 O.3   151  THR151     -0.2211
    108  CG2       32.0940   29.7600   18.2160 C.3   151  THR151      0.0375
    109  N         35.2560   34.3150   22.2110 N.3   153  LEU153     -0.1245
    110  CA        34.5220   35.0490   23.2280 C.3   153  LEU153      0.1561
    111  C         35.2380   36.3550   23.5470 C.2   153  LEU153      0.2260
    112  O         36.2490   36.3670   24.2470 O.2   153  LEU153     -0.2867
    113  CB        34.3670   34.1960   24.4860 C.3   153  LEU153      0.0270
    114  CG        33.5960   32.8910   24.2830 C.3   153  LEU153      0.0019
    115  CD1       33.8490   31.9240   25.4250 C.3   153  LEU153      0.0001
    116  CD2       32.1140   33.1760   24.1250 C.3   153  LEU153      0.0001
    117  N         24.8660   32.8490   28.1350 N.3   161  LEU161     -0.1245
    118  CA        25.4920   31.6130   27.7020 C.3   161  LEU161      0.1561
    119  C         25.0250   30.4750   28.6040 C.2   161  LEU161      0.2260
    120  O         24.4630   29.4850   28.1340 O.2   161  LEU161     -0.2867
    121  CB        27.0130   31.7430   27.7460 C.3   161  LEU161      0.0270
    122  CG        27.8160   30.6870   26.9870 C.3   161  LEU161      0.0019
    123  CD1       29.1900   31.2320   26.6240 C.3   161  LEU161      0.0001
    124  CD2       27.9310   29.3980   27.7880 C.3   161  LEU161      0.0001
    125  N         21.9990   27.5420   27.7060 N.3   165  LEU165     -0.1245
    126  CA        22.7300   26.2910   27.4960 C.3   165  LEU165      0.1561
    127  C         22.5270   25.2850   28.6250 C.2   165  LEU165      0.2260
    128  O         23.1110   24.2010   28.6040 O.2   165  LEU165     -0.2867
    129  CB        24.2230   26.5510   27.2820 C.3   165  LEU165      0.0270
    130  CG        24.6120   27.0720   25.8990 C.3   165  LEU165      0.0019
    131  CD1       26.1170   27.0300   25.7330 C.3   165  LEU165      0.0001
    132  CD2       23.9330   26.2580   24.8100 C.3   165  LEU165      0.0001
    133  N         26.6140   17.7700   24.1450 N.3   179  SER179     -0.1202
    134  CA        27.6240   18.8020   24.2980 C.3   179  SER179      0.2020
    135  C         28.6730   18.3490   25.3050 C.2   179  SER179      0.2619
    136  O         28.4760   17.3680   26.0210 O.2   179  SER179     -0.2717
    137  CB        26.9920   20.1150   24.7570 C.3   179  SER179      0.2103
    138  OG        26.0150   20.5650   23.8380 O.3   179  SER179     -0.2182
    139  N         29.7930   19.0610   25.3490 N.am  180  VAL180     -0.1965
    140  CA        30.8260   18.7870   26.3380 C.3   180  VAL180      0.1727
    141  C         31.2240   20.0710   27.0480 C.2   180  VAL180      0.2616
    142  O         32.1190   20.7930   26.6040 O.2   180  VAL180     -0.2715
    143  CB        32.0630   18.1300   25.7120 C.3   180  VAL180      0.0290
    144  CG1       33.1730   18.0080   26.7460 C.3   180  VAL180      0.0023
    145  CG2       31.7010   16.7620   25.1460 C.3   180  VAL180      0.0023
    146  N         30.5490   20.3410   28.1610 N.am  181  ARG181     -0.1963
    147  CA        30.7130   21.5900   28.8950 C.3   181  ARG181      0.1729
    148  C         32.1330   21.8360   29.3970 C.2   181  ARG181      0.2616
    149  O         32.8680   20.9050   29.7210 O.2   181  ARG181     -0.2715
    150  CB        29.7400   21.6290   30.0750 C.3   181  ARG181      0.0348
    151  CG        28.2880   21.4380   29.6840 C.3   181  ARG181      0.0492
    152  CD        27.4030   21.3670   30.9090 C.3   181  ARG181      0.2205
    153  NE        25.9940   21.2900   30.5480 N.pl3 181  ARG181     -0.0865
    154  CZ        25.3010   22.3060   30.0510 C.cat 181  ARG181      0.5346
    155  NH1       25.8910   23.4760   29.8470 N.pl3 181  ARG181      0.1354
    156  NH2       24.0210   22.1530   29.7520 N.pl3 181  ARG181      0.1354
    157  N         32.5050   23.1080   29.4540 N.am  182  SER182     -0.1950
    158  CA        33.7460   23.5220   30.0880 C.3   182  SER182      0.1924
    159  C         33.6420   24.9940   30.4810 C.2   182  SER182      0.2314
    160  O         32.8420   25.7370   29.9130 O.2   182  SER182     -0.2863
    161  CB        34.9580   23.2630   29.1800 C.3   182  SER182      0.2116
    162  OG        34.8540   23.9410   27.9390 O.3   182  SER182     -0.2180
    163  N         34.2210   28.8470   30.7140 N.3   184  VAL184     -0.1245
    164  CA        34.5670   29.7880   29.6580 C.3   184  VAL184      0.1561
    165  C         34.7560   31.2030   30.1880 C.2   184  VAL184      0.2260
    166  O         34.2780   31.5350   31.2710 O.2   184  VAL184     -0.2867
    167  CB        33.4810   29.8170   28.5620 C.3   184  VAL184      0.0252
    168  CG1       33.4090   28.4780   27.8490 C.3   184  VAL184      0.0019
    169  CG2       32.1310   30.1770   29.1640 C.3   184  VAL184      0.0019
@<TRIPOS>BOND
     1     3     4    2
     2     3     2    1
     3     2     5    1
     4     2     1    1
     5     5     6    1
     6     6     7    1
     7     7     8    1
     8     8     9    2
     9     9    10    1
    10     9    11    1
    11    98    97    1
    12    98    99    2
    13    12    13    1
    14   100   101    1
    15   100    97    1
    16    97    96    1
    17    51    49   ar
    18    51    52   ar
    19    49    48   ar
    20   102   103    1
    21    13    14    1
    22    56    55    2
    23   103   104    1
    24   103   106    1
    25    52    50   ar
    26    95    94    2
    27    15    14    2
    28    68    66   am
    29    48    47    1
    30    48    50   ar
    31    60    58   am
    32   108   106    1
    33    96    94   am
    34    14    16   am
    35    55    54    1
    36    47    44    1
    37   104   105    2
    38    94    93    1
    39    66    67    2
    40    66    65    1
    41   106   107    1
    42    91    90    1
    43    19    18    2
    44    31    29    1
    45    58    59    2
    46    58    57    1
    47    65    62    1
    48    62    61    1
    49    62    63    1
    50    16    17    1
    51    54    57    1
    52    54    53    1
    53    44    45    1
    54    44    43    1
    55    93    92    1
    56    46    45    2
    57    64    63    2
    58    18    17    1
    59    18    20   am
    60    63    69   am
    61    90    87    1
    62    92    88   am
    63    30    29    1
    64    29    26    1
    65    43    34   am
    66    28    27    2
    67    25    26    1
    68    25    22   am
    69    69    70    1
    70    21    20    1
    71    21    22    1
    72    21    24    1
    73    88    87    1
    74    88    89    2
    75    87    86    1
    76    27    26    1
    77    27    32   am
    78    34    35    2
    79    34    33    1
    80    22    23    2
    81    72    71    2
    82    71    70    1
    83   109   110    1
    84    70    73    1
    85    32    33    1
    86    33    36    1
    87   110   111    1
    88   110   113    1
    89    75    74   ar
    90   111   112    2
    91    73    74    1
    92    38    40   ar
    93    38    37   ar
    94    36    37    1
    95    40    42   ar
    96   138   137    1
    97    74    76   ar
    98    37    39   ar
    99   116   114    1
   100    84    85    1
   101    84    83    1
   102   133   134    1
   103    42    41   ar
   104   114   113    1
   105   114   115    1
   106    39    41   ar
   107   134   137    1
   108   134   135    1
   109   132   130    1
   110   145   143    1
   111    83    82    1
   112   135   139   am
   113   135   136    2
   114   139   140    1
   115    82    81    1
   116   143   140    1
   117   143   144    1
   118   131   130    1
   119   130   129    1
   120   140   141    1
   121    79    80    2
   122    79    78    1
   123   142   141    2
   124   123   122    1
   125    81    78    1
   126   122   121    1
   127   122   124    1
   128   141   146   am
   129    78    77    1
   130   129   126    1
   131   126   125    1
   132   126   127    1
   133   118   121    1
   134   118   117    1
   135   118   119    1
   136   168   167    1
   137   162   161    1
   138   120   119    2
   139   146   147    1
   140   167   169    1
   141   167   164    1
   142   128   127    2
   143   147   148    1
   144   147   150    1
   145   161   158    1
   146   148   157   am
   147   148   149    2
   148   157   158    1
   149   164   165    1
   150   164   163    1
   151   151   150    1
   152   151   152    1
   153   156   154    1
   154   155   154    1
   155   160   159    2
   156   154   153    2
   157   158   159    1
   158   165   166    2
   159   153   152    1
