@<TRIPOS>MOLECULE
tmp/3a7cA02.pdb
 242 233 0 0 0
SMALL
GASTEIGER

@<TRIPOS>ATOM
      1  N        -12.2430   -2.9210  -14.7440 N.3   286  VAL286     -0.1245
      2  CA       -13.5830   -2.4380  -14.3970 C.3   286  VAL286      0.1561
      3  C        -13.6920   -2.3480  -12.8720 C.2   286  VAL286      0.2260
      4  O        -13.5170   -3.3400  -12.1670 O.2   286  VAL286     -0.2867
      5  CB       -14.6840   -3.3750  -14.9220 C.3   286  VAL286      0.0252
      6  CG1      -16.0380   -2.8980  -14.4360 C.3   286  VAL286      0.0019
      7  CG2      -14.6600   -3.4230  -16.4420 C.3   286  VAL286      0.0019
      8  N        -16.1360   -1.1190   -9.6590 N.3   288  ILE288     -0.1245
      9  CA       -17.4210   -0.6670   -9.1670 C.3   288  ILE288      0.1561
     10  C        -17.3950   -0.6450   -7.6420 C.2   288  ILE288      0.2260
     11  O        -16.9560   -1.6080   -6.9960 O.2   288  ILE288     -0.2867
     12  CB       -18.5480   -1.5820   -9.6580 C.3   288  ILE288      0.0252
     13  CG1      -18.6220   -1.5360  -11.1860 C.3   288  ILE288      0.0019
     14  CG2      -19.8760   -1.1310   -9.0710 C.3   288  ILE288      0.0019
     15  CD1      -19.6090   -2.5140  -11.7910 C.3   288  ILE288      0.0001
     16  N        -22.3300    0.4720   -5.4930 N.3   291  LEU291     -0.1245
     17  CA       -23.3370    0.5710   -6.5270 C.3   291  LEU291      0.1561
     18  C        -24.6740    0.2770   -5.8550 C.2   291  LEU291      0.2260
     19  O        -24.8350   -0.7570   -5.2010 O.2   291  LEU291     -0.2867
     20  CB       -23.0660   -0.4560   -7.6220 C.3   291  LEU291      0.0270
     21  CG       -24.1940   -0.6840   -8.6240 C.3   291  LEU291      0.0019
     22  CD1      -24.4900    0.6050   -9.3740 C.3   291  LEU291      0.0001
     23  CD2      -23.7940   -1.7820   -9.5840 C.3   291  LEU291      0.0001
     24  N        -28.4970   -0.5130   -6.3970 N.3   293  ILE293     -0.1245
     25  CA       -29.4270   -1.0130   -7.3980 C.3   293  ILE293      0.1561
     26  C        -30.8380   -1.1940   -6.8190 C.2   293  ILE293      0.2260
     27  O        -31.2110   -2.2830   -6.3840 O.2   293  ILE293     -0.2867
     28  CB       -28.9040   -2.3460   -7.9660 C.3   293  ILE293      0.0252
     29  CG1      -29.9800   -3.0230   -8.8070 C.3   293  ILE293      0.0019
     30  CG2      -28.4450   -3.2420   -6.8410 C.3   293  ILE293      0.0019
     31  CD1      -30.2120   -2.3470  -10.1230 C.3   293  ILE293      0.0001
     32  N        -34.4090   -4.6670   -7.5820 N.3   296  PHE296     -0.1227
     33  CA       -33.8450   -5.5830   -8.5630 C.3   296  PHE296      0.1736
     34  C        -34.8830   -6.6860   -8.7520 C.2   296  PHE296      0.2595
     35  O        -34.7490   -7.7850   -8.2100 O.2   296  PHE296     -0.2718
     36  CB       -32.5350   -6.1870   -8.0540 C.3   296  PHE296      0.0547
     37  CG       -31.6440   -6.7160   -9.1460 C.ar  296  PHE296     -0.0202
     38  CD1      -32.1730   -7.4350  -10.2160 C.ar  296  PHE296     -0.0042
     39  CD2      -30.2690   -6.4960   -9.1060 C.ar  296  PHE296     -0.0042
     40  CE1      -31.3450   -7.9320  -11.2270 C.ar  296  PHE296     -0.0003
     41  CE2      -29.4330   -6.9890  -10.1120 C.ar  296  PHE296     -0.0003
     42  CZ       -29.9740   -7.7050  -11.1750 C.ar  296  PHE296     -0.0000
     43  N        -35.9230   -6.3620   -9.5150 N.am  297  TYR297     -0.1962
     44  CA       -37.0360   -7.2620   -9.8020 C.3   297  TYR297      0.1771
     45  C        -36.7340   -8.7580   -9.8540 C.2   297  TYR297      0.2619
     46  O        -36.6250   -9.4100   -8.8140 O.2   297  TYR297     -0.2715
     47  CB       -37.7130   -6.8210  -11.1010 C.3   297  TYR297      0.0574
     48  CG       -36.7830   -6.1150  -12.0600 C.ar  297  TYR297     -0.0198
     49  CD1      -35.7640   -6.8040  -12.7140 C.ar  297  TYR297     -0.0009
     50  CD2      -36.9130   -4.7490  -12.3020 C.ar  297  TYR297     -0.0009
     51  CE1      -34.8950   -6.1460  -13.5870 C.ar  297  TYR297      0.0417
     52  CE2      -36.0500   -4.0830  -13.1690 C.ar  297  TYR297      0.0417
     53  CZ       -35.0450   -4.7860  -13.8090 C.ar  297  TYR297      0.1957
     54  OH       -34.1990   -4.1290  -14.6670 O.3   297  TYR297     -0.2866
     55  N        -36.6160   -9.3020  -11.0620 N.am  298  LEU298     -0.1963
     56  CA       -36.3480  -10.7240  -11.2340 C.3   298  LEU298      0.1728
     57  C        -35.0880  -10.9440  -12.0770 C.2   298  LEU298      0.2616
     58  O        -34.1220  -10.1870  -11.9730 O.2   298  LEU298     -0.2715
     59  CB       -37.5600  -11.4020  -11.8910 C.3   298  LEU298      0.0311
     60  CG       -37.7370  -12.9200  -11.7470 C.3   298  LEU298      0.0022
     61  CD1      -37.9830  -13.2780  -10.2880 C.3   298  LEU298      0.0001
     62  CD2      -38.9070  -13.3820  -12.6030 C.3   298  LEU298      0.0001
     63  N        -35.1140  -11.9770  -12.9130 N.am  299  PHE299     -0.1960
     64  CA       -33.9830  -12.3380  -13.7670 C.3   299  PHE299      0.1771
     65  C        -33.8200  -11.4800  -15.0180 C.2   299  PHE299      0.2619
     66  O        -34.7150  -11.4130  -15.8590 O.2   299  PHE299     -0.2715
     67  CB       -34.1100  -13.8160  -14.1590 C.3   299  PHE299      0.0574
     68  CG       -33.1430  -14.2620  -15.2240 C.ar  299  PHE299     -0.0200
     69  CD1      -33.5220  -14.2800  -16.5650 C.ar  299  PHE299     -0.0042
     70  CD2      -31.8660  -14.6950  -14.8830 C.ar  299  PHE299     -0.0042
     71  CE1      -32.6400  -14.7260  -17.5540 C.ar  299  PHE299     -0.0003
     72  CE2      -30.9780  -15.1420  -15.8630 C.ar  299  PHE299     -0.0003
     73  CZ       -31.3680  -15.1590  -17.2000 C.ar  299  PHE299     -0.0000
     74  N        -32.6640  -10.8290  -15.1300 N.am  300  TYR300     -0.1974
     75  CA       -32.3550   -9.9930  -16.2850 C.3   300  TYR300      0.1639
     76  C        -31.5830  -10.8840  -17.2590 C.2   300  TYR300      0.2290
     77  O        -31.2870  -12.0370  -16.9440 O.2   300  TYR300     -0.2864
     78  CB       -31.4950   -8.7910  -15.8610 C.3   300  TYR300      0.0560
     79  CG       -31.2660   -7.7500  -16.9440 C.ar  300  TYR300     -0.0198
     80  CD1      -32.3360   -7.0690  -17.5240 C.ar  300  TYR300     -0.0009
     81  CD2      -29.9780   -7.4370  -17.3780 C.ar  300  TYR300     -0.0009
     82  CE1      -32.1290   -6.0960  -18.5110 C.ar  300  TYR300      0.0417
     83  CE2      -29.7610   -6.4660  -18.3640 C.ar  300  TYR300      0.0417
     84  CZ       -30.8400   -5.8000  -18.9260 C.ar  300  TYR300      0.1957
     85  OH       -30.6320   -4.8400  -19.8900 O.3   300  TYR300     -0.2866
     86  N        -28.2970  -10.8390  -18.5230 N.3   302  LEU302     -0.1245
     87  CA       -26.9730  -11.2440  -18.0400 C.3   302  LEU302      0.1561
     88  C        -26.0700  -11.7280  -19.1740 C.2   302  LEU302      0.2260
     89  O        -24.8460  -11.7020  -19.0480 O.2   302  LEU302     -0.2867
     90  CB       -27.0770  -12.3330  -16.9620 C.3   302  LEU302      0.0270
     91  CG       -27.3690  -11.8880  -15.5240 C.3   302  LEU302      0.0019
     92  CD1      -27.5030  -13.1130  -14.6360 C.3   302  LEU302      0.0001
     93  CD2      -26.2540  -10.9860  -15.0180 C.3   302  LEU302      0.0001
     94  N        -23.6620   -9.3560  -21.1100 N.3   305  VAL305     -0.1245
     95  CA       -22.5670   -8.9820  -20.2250 C.3   305  VAL305      0.1561
     96  C        -21.4380  -10.0170  -20.3200 C.2   305  VAL305      0.2260
     97  O        -20.2860   -9.7250  -19.9880 O.2   305  VAL305     -0.2867
     98  CB       -23.0510   -8.8820  -18.7630 C.3   305  VAL305      0.0252
     99  CG1      -22.5270   -7.6050  -18.1170 C.3   305  VAL305      0.0019
    100  CG2      -24.4820   -8.8540  -18.7360 C.3   305  VAL305      0.0019
    101  N        -17.4070   -8.8110  -21.1700 N.3   309  LEU309     -0.1245
    102  CA       -16.2680   -8.8910  -20.2620 C.3   309  LEU309      0.1561
    103  C        -15.2530   -9.9750  -20.6250 C.2   309  LEU309      0.2260
    104  O        -14.3790  -10.3050  -19.8290 O.2   309  LEU309     -0.2867
    105  CB       -16.7750   -9.1230  -18.8350 C.3   309  LEU309      0.0270
    106  CG       -17.8000   -8.1340  -18.2680 C.3   309  LEU309      0.0019
    107  CD1      -18.2260   -8.5900  -16.8850 C.3   309  LEU309      0.0001
    108  CD2      -17.2060   -6.7380  -18.1980 C.3   309  LEU309      0.0001
    109  N        -11.2340   -6.9030  -12.3060 N.3   315  ILE315     -0.1245
    110  CA       -12.5660   -6.4700  -11.9250 C.3   315  ILE315      0.1561
    111  C        -12.6750   -6.2970  -10.4210 C.2   315  ILE315      0.2260
    112  O        -12.2630   -7.1670   -9.6470 O.2   315  ILE315     -0.2867
    113  CB       -13.6570   -7.4900  -12.3430 C.3   315  ILE315      0.0252
    114  CG1      -13.8350   -7.4750  -13.8560 C.3   315  ILE315      0.0019
    115  CG2      -14.9930   -7.1480  -11.6650 C.3   315  ILE315      0.0019
    116  CD1      -14.9210   -8.4050  -14.3440 C.3   315  ILE315      0.0001
    117  N        -15.6200   -5.1110   -7.5460 N.3   317  VAL317     -0.1245
    118  CA       -17.0100   -4.7860   -7.2820 C.3   317  VAL317      0.1561
    119  C        -17.1360   -4.8610   -5.7760 C.2   317  VAL317      0.2260
    120  O        -17.3590   -5.9350   -5.2140 O.2   317  VAL317     -0.2867
    121  CB       -17.9570   -5.7930   -7.9220 C.3   317  VAL317      0.0252
    122  CG1      -19.3790   -5.4550   -7.5490 C.3   317  VAL317      0.0019
    123  CG2      -17.7890   -5.7710   -9.4300 C.3   317  VAL317      0.0019
    124  N        -21.2930   -3.6160   -2.8530 N.3   320  SER320     -0.1202
    125  CA       -22.4210   -3.4550   -3.7490 C.3   320  SER320      0.2020
    126  C        -23.4210   -4.6030   -3.6150 C.2   320  SER320      0.2619
    127  O        -24.0810   -4.9810   -4.5820 O.2   320  SER320     -0.2717
    128  CB       -21.9240   -3.3290   -5.1880 C.3   320  SER320      0.2103
    129  OG       -21.0940   -2.1820   -5.3180 O.3   320  SER320     -0.2182
    130  N        -23.5200   -5.1430   -2.4030 N.am  321  LYS321     -0.1965
    131  CA       -24.4470   -6.2210   -2.0950 C.3   321  LYS321      0.1728
    132  C        -24.3720   -7.4560   -3.0030 C.2   321  LYS321      0.2616
    133  O        -25.3730   -8.1220   -3.2520 O.2   321  LYS321     -0.2715
    134  CB       -25.8700   -5.6570   -2.0730 C.3   321  LYS321      0.0311
    135  CG       -26.0590   -4.6110   -0.9890 C.3   321  LYS321      0.0038
    136  CD       -27.2910   -3.7720   -1.2350 C.3   321  LYS321      0.0206
    137  CE       -27.5110   -2.7670   -0.1080 C.3   321  LYS321      0.1093
    138  NZ       -27.8560   -3.4440    1.1800 N.3   321  LYS321     -0.1314
    139  N        -23.1830   -7.7790   -3.4890 N.am  322  VAL322     -0.1963
    140  CA       -23.0440   -8.9520   -4.3330 C.3   322  VAL322      0.1727
    141  C        -23.2190  -10.2230   -3.4860 C.2   322  VAL322      0.2616
    142  O        -22.5620  -10.3880   -2.4500 O.2   322  VAL322     -0.2715
    143  CB       -21.6520   -8.9870   -5.0000 C.3   322  VAL322      0.0290
    144  CG1      -21.4860  -10.2910   -5.7730 C.3   322  VAL322      0.0023
    145  CG2      -21.4820   -7.7800   -5.9270 C.3   322  VAL322      0.0023
    146  N        -24.1100  -11.1160   -3.9040 N.am  323  PHE323     -0.1960
    147  CA       -24.2890  -12.3590   -3.1540 C.3   323  PHE323      0.1771
    148  C        -24.0860  -13.5920   -4.0330 C.2   323  PHE323      0.2619
    149  O        -23.9400  -14.7020   -3.5270 O.2   323  PHE323     -0.2715
    150  CB       -25.6720  -12.4060   -2.4820 C.3   323  PHE323      0.0574
    151  CG       -26.7880  -12.8240   -3.3920 C.ar  323  PHE323     -0.0200
    152  CD1      -27.0540  -14.1730   -3.6270 C.ar  323  PHE323     -0.0042
    153  CD2      -27.5870  -11.8720   -4.0100 C.ar  323  PHE323     -0.0042
    154  CE1      -28.0970  -14.5620   -4.4570 C.ar  323  PHE323     -0.0003
    155  CE2      -28.6390  -12.2590   -4.8490 C.ar  323  PHE323     -0.0003
    156  CZ       -28.8900  -13.6010   -5.0680 C.ar  323  PHE323     -0.0000
    157  N        -24.0690  -13.3910   -5.3450 N.am  324  LEU324     -0.1963
    158  CA       -23.8950  -14.4800   -6.2970 C.3   324  LEU324      0.1728
    159  C        -23.3330  -14.0310   -7.6330 C.2   324  LEU324      0.2616
    160  O        -23.7980  -13.0610   -8.2170 O.2   324  LEU324     -0.2715
    161  CB       -25.2320  -15.1790   -6.5620 C.3   324  LEU324      0.0311
    162  CG       -25.3030  -15.9600   -7.8860 C.3   324  LEU324      0.0022
    163  CD1      -24.3350  -17.1470   -7.8470 C.3   324  LEU324      0.0001
    164  CD2      -26.7300  -16.4300   -8.1390 C.3   324  LEU324      0.0001
    165  N        -22.3280  -14.7480   -8.1110 N.am  325  VAL325     -0.1964
    166  CA       -21.7400  -14.4670   -9.4070 C.3   325  VAL325      0.1712
    167  C        -21.9910  -15.7610  -10.1550 C.2   325  VAL325      0.2458
    168  O        -21.1850  -16.6820  -10.1020 O.2   325  VAL325     -0.2730
    169  CB       -20.2260  -14.2120   -9.3180 C.3   325  VAL325      0.0289
    170  CG1      -19.6480  -14.0840  -10.7140 C.3   325  VAL325      0.0023
    171  CG2      -19.9620  -12.9440   -8.5320 C.3   325  VAL325      0.0023
    172  N        -23.1290  -15.8480  -10.8580 N.am  326  PRO326     -0.2727
    173  CA       -23.4790  -17.0570  -11.6100 C.3   326  PRO326      0.1402
    174  C        -22.3340  -17.6910  -12.3920 C.2   326  PRO326      0.2269
    175  O        -21.5640  -17.0090  -13.0690 O.2   326  PRO326     -0.2865
    176  CB       -24.6360  -16.5970  -12.4980 C.3   326  PRO326      0.0296
    177  CG       -24.4060  -15.1200  -12.6260 C.3   326  PRO326      0.0237
    178  CD       -24.0000  -14.7250  -11.2390 C.3   326  PRO326      0.0939
    179  N        -21.3950  -16.9600  -15.8780 N.3   329  PHE329     -0.1241
    180  CA       -20.8480  -15.6180  -15.9550 C.3   329  PHE329      0.1605
    181  C        -19.3380  -15.7270  -15.7210 C.2   329  PHE329      0.2264
    182  O        -18.5460  -15.1210  -16.4240 O.2   329  PHE329     -0.2867
    183  CB       -21.4790  -14.7450  -14.8750 C.3   329  PHE329      0.0534
    184  CG       -21.2500  -13.2860  -15.0700 C.ar  329  PHE329     -0.0203
    185  CD1      -22.0800  -12.5510  -15.9080 C.ar  329  PHE329     -0.0042
    186  CD2      -20.1880  -12.6450  -14.4370 C.ar  329  PHE329     -0.0042
    187  CE1      -21.8550  -11.1900  -16.1150 C.ar  329  PHE329     -0.0003
    188  CE2      -19.9520  -11.2870  -14.6370 C.ar  329  PHE329     -0.0003
    189  CZ       -20.7840  -10.5580  -15.4780 C.ar  329  PHE329     -0.0000
    190  N         -9.6770  -10.4220   -9.2160 N.3   339  LEU339     -0.1245
    191  CA       -11.0830  -10.2250   -8.8780 C.3   339  LEU339      0.1561
    192  C        -11.2010   -9.8120   -7.4280 C.2   339  LEU339      0.2260
    193  O        -10.7610  -10.5380   -6.5360 O.2   339  LEU339     -0.2867
    194  CB       -11.8890  -11.4920   -9.1030 C.3   339  LEU339      0.0270
    195  CG       -13.3680  -11.3640   -8.7350 C.3   339  LEU339      0.0019
    196  CD1      -13.9920  -10.2250   -9.5470 C.3   339  LEU339      0.0001
    197  CD2      -14.0860  -12.6800   -9.0120 C.3   339  LEU339      0.0001
    198  N        -13.9430   -8.8170   -4.6470 N.3   341  LEU341     -0.1245
    199  CA       -15.3410   -8.8120   -4.2490 C.3   341  LEU341      0.1561
    200  C        -15.5330   -8.3790   -2.7940 C.2   341  LEU341      0.2260
    201  O        -16.4720   -8.8110   -2.1330 O.2   341  LEU341     -0.2867
    202  CB       -15.9370  -10.2000   -4.4730 C.3   341  LEU341      0.0270
    203  CG       -16.0820  -10.6140   -5.9430 C.3   341  LEU341      0.0019
    204  CD1      -16.6730  -12.0080   -6.0400 C.3   341  LEU341      0.0001
    205  CD2      -16.9720   -9.6250   -6.6540 C.3   341  LEU341      0.0001
    206  N        -21.8530   -9.8250    0.1610 N.3   345  LEU345     -0.1245
    207  CA       -22.5770  -10.8350    0.9510 C.3   345  LEU345      0.1561
    208  C        -22.3390  -12.3210    0.6130 C.2   345  LEU345      0.2260
    209  O        -23.2150  -13.1610    0.8600 O.2   345  LEU345     -0.2867
    210  CB       -24.0750  -10.5540    0.8550 C.3   345  LEU345      0.0270
    211  CG       -24.4400   -9.0680    0.9700 C.3   345  LEU345      0.0019
    212  CD1      -25.8480   -8.8490    0.4680 C.3   345  LEU345      0.0001
    213  CD2      -24.2820   -8.6010    2.4060 C.3   345  LEU345      0.0001
    214  N        -21.4560  -16.2030    0.6410 N.3   347  VAL347     -0.1245
    215  CA       -21.4780  -17.3060    1.5990 C.3   347  VAL347      0.1561
    216  C        -21.0600  -18.5710    0.8230 C.2   347  VAL347      0.2260
    217  O        -21.2270  -18.6460   -0.4010 O.2   347  VAL347     -0.2867
    218  CB       -22.8900  -17.5240    2.2270 C.3   347  VAL347      0.0252
    219  CG1      -23.4440  -16.2020    2.7430 C.3   347  VAL347      0.0019
    220  CG2      -23.8290  -18.1280    1.2200 C.3   347  VAL347      0.0019
    221  N        -23.0730  -20.1320   -2.1960 N.3   350  TYR350     -0.1241
    222  CA       -23.1070  -19.4020   -3.4510 C.3   350  TYR350      0.1605
    223  C        -21.7270  -19.2030   -4.0620 C.2   350  TYR350      0.2264
    224  O        -21.5970  -18.9700   -5.2670 O.2   350  TYR350     -0.2867
    225  CB       -23.8190  -18.0650   -3.2660 C.3   350  TYR350      0.0534
    226  CG       -25.2730  -18.2360   -2.9030 C.ar  350  TYR350     -0.0201
    227  CD1      -25.6510  -18.5240   -1.6040 C.ar  350  TYR350     -0.0009
    228  CD2      -26.2670  -18.1610   -3.8730 C.ar  350  TYR350     -0.0009
    229  CE1      -26.9840  -18.7370   -1.2740 C.ar  350  TYR350      0.0417
    230  CE2      -27.6130  -18.3740   -3.5520 C.ar  350  TYR350      0.0417
    231  CZ       -27.9610  -18.6650   -2.2520 C.ar  350  TYR350      0.1957
    232  OH       -29.2740  -18.9150   -1.9230 O.3   350  TYR350     -0.2866
    233  N        -19.5640  -13.0380    3.9730 N.3   372  HIS372     -0.1241
    234  CA       -20.1620  -13.8680    5.0030 C.3   372  HIS372      0.1621
    235  C        -19.6970  -15.3150    4.9350 C.2   372  HIS372      0.2264
    236  O        -20.4970  -16.2430    4.9950 O.2   372  HIS372     -0.2867
    237  CB       -21.6840  -13.7890    4.9300 C.3   372  HIS372      0.0745
    238  CG       -22.2260  -12.4460    5.2950 C.ar  372  HIS372      0.0817
    239  ND1      -21.8600  -11.7900    6.4520 N.ar  372  HIS372     -0.2268
    240  CD2      -23.0850  -11.6220    4.6520 C.ar  372  HIS372      0.1154
    241  CE1      -22.4660  -10.6180    6.5010 C.ar  372  HIS372      0.1986
    242  NE2      -23.2150  -10.4900    5.4190 N.ar  372  HIS372     -0.2212
@<TRIPOS>BOND
     1   101   102    1
     2    94    95    1
     3   103   102    1
     4   103   104    2
     5    96    95    1
     6    96    97    2
     7   102   105    1
     8    95    98    1
     9    85    84    1
    10    88    89    2
    11    88    87    1
    12    84    82   ar
    13    84    83   ar
    14   105   106    1
    15    98   100    1
    16    98    99    1
    17    86    87    1
    18    82    80   ar
    19    83    81   ar
    20   106   108    1
    21   106   107    1
    22    87    90    1
    23    71    73   ar
    24    71    69   ar
    25    80    79   ar
    26    81    79   ar
    27    76    77    2
    28    76    75    1
    29    73    72   ar
    30    90    91    1
    31    79    78    1
    32    69    68   ar
    33     7     5    1
    34   182   181    2
    35    75    78    1
    36    75    74    1
    37   187   185   ar
    38   187   189   ar
    39   180   179    1
    40   180   181    1
    41   180   183    1
    42   185   184   ar
    43    72    70   ar
    44    66    65    2
    45    91    93    1
    46    91    92    1
    47   189   188   ar
    48    68    70   ar
    49    68    67    1
    50    74    65   am
    51   184   183    1
    52   184   186   ar
    53    65    64    1
    54     5     6    1
    55     5     2    1
    56     1     2    1
    57    54    53    1
    58   188   186   ar
    59     2     3    1
    60   116   114    1
    61    67    64    1
    62   114   113    1
    63    53    51   ar
    64    53    52   ar
    65    64    63    1
    66    51    49   ar
    67    52    50   ar
    68   175   174    2
    69    63    57   am
    70     3     4    2
    71    49    48   ar
    72   177   176    1
    73   177   178    1
    74    62    60    1
    75   176   173    1
    76   174   173    1
    77   113   110    1
    78   113   115    1
    79   109   110    1
    80    50    48   ar
    81    57    58    2
    82    57    56    1
    83    48    47    1
    84   110   111    1
    85    59    60    1
    86    59    56    1
    87    15    13    1
    88    60    61    1
    89   173   172    1
    90   178   172    1
    91    56    55    1
    92    40    42   ar
    93    40    38   ar
    94    13    12    1
    95    42    41   ar
    96    47    44    1
    97    55    45   am
    98   172   167   am
    99   170   169    1
   100   111   112    2
   101    38    37   ar
   102   167   168    2
   103   167   166    1
   104    31    29    1
   105    41    39   ar
   106    45    44    1
   107    45    46    2
   108    44    43    1
   109     8     9    1
   110    12     9    1
   111    12    14    1
   112    23    21    1
   113   196   195    1
   114    43    34   am
   115   123   121    1
   116   166   169    1
   117   166   165    1
   118    22    21    1
   119   169   171    1
   120   190   191    1
   121     9    10    1
   122    37    39   ar
   123    37    36    1
   124   194   191    1
   125   194   195    1
   126   197   195    1
   127   191   192    1
   128    29    28    1
   129    34    33    1
   130    34    35    2
   131    21    20    1
   132    33    36    1
   133    33    32    1
   134   160   159    2
   135   164   162    1
   136   165   159   am
   137    28    25    1
   138    28    30    1
   139   121   122    1
   140   121   118    1
   141   162   163    1
   142   162   161    1
   143    10    11    2
   144   159   158    1
   145    20    17    1
   146   117   118    1
   147   192   193    2
   148    25    26    1
   149    25    24    1
   150   118   119    1
   151    26    27    2
   152   205   203    1
   153   161   158    1
   154    17    18    1
   155    17    16    1
   156   158   157    1
   157   204   203    1
   158   203   202    1
   159   145   143    1
   160    18    19    2
   161   119   120    2
   162   144   143    1
   163   157   148   am
   164   129   128    1
   165   224   223    2
   166   128   125    1
   167   156   155   ar
   168   156   154   ar
   169   143   140    1
   170   155   153   ar
   171   198   199    1
   172   127   126    2
   173   202   199    1
   174   154   152   ar
   175   140   139    1
   176   140   141    1
   177   199   200    1
   178   223   222    1
   179   148   149    2
   180   148   147    1
   181   153   151   ar
   182   146   141   am
   183   146   147    1
   184   228   230   ar
   185   228   226   ar
   186   125   126    1
   187   125   124    1
   188   152   151   ar
   189   126   130   am
   190   230   231   ar
   191   139   132   am
   192   141   142    2
   193   222   225    1
   194   222   221    1
   195   151   150    1
   196   225   226    1
   197   133   132    2
   198   147   150    1
   199   132   131    1
   200   226   227   ar
   201   200   201    2
   202   130   131    1
   203   231   232    1
   204   231   229   ar
   205   131   134    1
   206   134   135    1
   207   227   229   ar
   208   136   135    1
   209   136   137    1
   210   217   216    2
   211   137   138    1
   212   206   207    1
   213   212   211    1
   214   208   209    2
   215   208   207    1
   216   214   215    1
   217   216   215    1
   218   210   207    1
   219   210   211    1
   220   211   213    1
   221   220   218    1
   222   215   218    1
   223   218   219    1
   224   233   234    1
   225   240   238   ar
   226   240   242   ar
   227   237   234    1
   228   237   238    1
   229   235   236    2
   230   235   234    1
   231   238   239   ar
   232   242   241   ar
   233   239   241   ar
