@<TRIPOS>MOLECULE
tmp/3a7dA00.pdb
 206 202 0 0 0
SMALL
GASTEIGER

@<TRIPOS>ATOM
      1  N         19.4610   -7.6800  -24.5070 N.3    37  TRP37      -0.1241
      2  CA        19.6040   -8.1610  -23.1420 C.3    37  TRP37       0.1605
      3  C         20.5780   -7.2420  -22.4180 C.2    37  TRP37       0.2264
      4  O         21.5800   -6.8320  -22.9910 O.2    37  TRP37      -0.2867
      5  CB        20.1210   -9.6040  -23.0990 C.3    37  TRP37       0.0550
      6  CG        20.1430  -10.1750  -21.6990 C.ar   37  TRP37       0.0003
      7  CD1       19.1350  -10.8580  -21.0800 C.ar   37  TRP37       0.0946
      8  CD2       21.2170  -10.0980  -20.7450 C.ar   37  TRP37       0.0152
      9  NE1       19.5150  -11.2110  -19.8080 N.ar   37  TRP37      -0.2442
     10  CE2       20.7890  -10.7630  -19.5790 C.ar   37  TRP37       0.0810
     11  CE3       22.5040   -9.5460  -20.7710 C.ar   37  TRP37       0.0012
     12  CZ2       21.5990  -10.8900  -18.4480 C.ar   37  TRP37       0.0191
     13  CZ3       23.3030   -9.6650  -19.6410 C.ar   37  TRP37       0.0001
     14  CH2       22.8470  -10.3340  -18.4980 C.ar   37  TRP37       0.0015
     15  N         22.0040   -6.4170  -18.0350 N.3    39  MET39      -0.1245
     16  CA        22.0380   -7.0690  -16.7230 C.3    39  MET39       0.1570
     17  C         21.3260   -6.3240  -15.5940 C.2    39  MET39       0.2261
     18  O         21.8280   -6.2500  -14.4720 O.2    39  MET39      -0.2867
     19  CB        23.4760   -7.4760  -16.3270 C.3    39  MET39       0.0387
     20  CG        24.5320   -6.3630  -16.2870 C.3    39  MET39       0.0595
     21  SD        26.1970   -7.0530  -16.0500 S.3    39  MET39      -0.1393
     22  CE        27.2040   -5.5980  -16.2670 C.3    39  MET39       0.0692
     23  N         26.7780   -1.7970   -6.6490 N.3    65  GLY65      -0.1225
     24  CA        26.6380   -1.8670   -8.1070 C.3    65  GLY65       0.1811
     25  C         25.3130   -1.2740   -8.5580 C.2    65  GLY65       0.2280
     26  O         24.2520   -1.8390   -8.2940 O.2    65  GLY65      -0.2866
     27  N         24.8240    0.0410  -11.9370 N.3    67  TYR67      -0.1241
     28  CA        24.6610   -0.1980  -13.3650 C.3    67  TYR67       0.1605
     29  C         23.8970    0.9470  -14.0450 C.2    67  TYR67       0.2264
     30  O         24.3910    2.0740  -14.0930 O.2    67  TYR67      -0.2867
     31  CB        24.0310   -1.5660  -13.6340 C.3    67  TYR67       0.0534
     32  CG        24.1140   -1.9910  -15.0890 C.ar   67  TYR67      -0.0201
     33  CD1       25.2970   -1.8430  -15.8170 C.ar   67  TYR67      -0.0009
     34  CD2       23.0140   -2.5410  -15.7340 C.ar   67  TYR67      -0.0009
     35  CE1       25.3730   -2.2320  -17.1490 C.ar   67  TYR67       0.0417
     36  CE2       23.0820   -2.9380  -17.0550 C.ar   67  TYR67       0.0417
     37  CZ        24.2590   -2.7780  -17.7600 C.ar   67  TYR67       0.1957
     38  OH        24.3060   -3.1670  -19.0780 O.3    67  TYR67      -0.2866
     39  N         26.6700    2.2750   -4.5490 N.3    88  MET88      -0.1230
     40  CA        28.0850    2.3220   -4.8970 C.3    88  MET88       0.1702
     41  C         28.3290    1.8370   -6.3120 C.2    88  MET88       0.2592
     42  O         28.0190    0.6930   -6.6480 O.2    88  MET88      -0.2718
     43  CB        28.9020    1.4550   -3.9300 C.3    88  MET88       0.0401
     44  CG        29.1140    2.0920   -2.5670 C.3    88  MET88       0.0596
     45  SD        29.9160    0.9960   -1.3780 S.3    88  MET88      -0.1393
     46  CE        29.6900    1.9920    0.0950 C.3    88  MET88       0.0692
     47  N         28.9150    2.7040   -7.1300 N.am   89  GLU89      -0.1966
     48  CA        29.1850    2.3770   -8.5120 C.3    89  GLU89       0.1733
     49  C         30.6070    2.7950   -8.8860 C.2    89  GLU89       0.2616
     50  O         30.9640    3.9680   -8.7670 O.2    89  GLU89      -0.2715
     51  CB        28.1500    3.0610   -9.4090 C.3    89  GLU89       0.0429
     52  CG        28.3590    2.8210  -10.8910 C.3    89  GLU89       0.1163
     53  CD        28.5270    1.3470  -11.2210 C.2    89  GLU89       0.3649
     54  OE1       27.6210    0.5500  -10.8790 O.co2  89  GLU89      -0.2457
     55  OE2       29.5590    0.9910  -11.8340 O.co2  89  GLU89      -0.2457
     56  N         31.4150    1.8390   -9.3390 N.am   90  MET90      -0.1963
     57  CA        32.8310    2.1080   -9.6320 C.3    90  MET90       0.1736
     58  C         33.0970    2.7350  -11.0060 C.2    90  MET90       0.2616
     59  O         34.1110    3.4040  -11.1890 O.2    90  MET90      -0.2715
     60  CB        33.6730    0.8360   -9.4770 C.3    90  MET90       0.0427
     61  CG        33.5200   -0.1580  -10.6050 C.3    90  MET90       0.0599
     62  SD        34.5290   -1.6060  -10.2900 S.3    90  MET90      -0.1393
     63  CE        34.2630   -2.5700  -11.7870 C.3    90  MET90       0.0692
     64  N         32.1860    2.5100  -11.9560 N.am   91  ASN91      -0.1972
     65  CA        32.3220    2.9940  -13.3270 C.3    91  ASN91       0.1688
     66  C         31.5490    4.3050  -13.5210 C.2    91  ASN91       0.2292
     67  O         30.3180    4.3050  -13.5440 O.2    91  ASN91      -0.2864
     68  CB        31.8410    1.9020  -14.2900 C.3    91  ASN91       0.1181
     69  CG        31.8460    2.3360  -15.7510 C.2    91  ASN91       0.2629
     70  OD1       31.7480    3.5240  -16.0750 O.2    91  ASN91      -0.2716
     71  ND2       31.9330    1.3600  -16.6430 N.am   91  ASN91      -0.0877
     72  N         28.5210    4.4990  -16.0120 N.3    94  TYR94      -0.1241
     73  CA        27.2910    3.8730  -15.5450 C.3    94  TYR94       0.1605
     74  C         26.6620    4.6950  -14.4270 C.2    94  TYR94       0.2264
     75  O         25.4390    4.8100  -14.3300 O.2    94  TYR94      -0.2867
     76  CB        27.5520    2.4590  -15.0650 C.3    94  TYR94       0.0534
     77  CG        28.0730    1.5360  -16.1360 C.ar   94  TYR94      -0.0201
     78  CD1       27.9460    1.8530  -17.4830 C.ar   94  TYR94      -0.0009
     79  CD2       28.6670    0.3260  -15.8010 C.ar   94  TYR94      -0.0009
     80  CE1       28.4170    1.0010  -18.4600 C.ar   94  TYR94       0.0417
     81  CE2       29.1360   -0.5270  -16.7660 C.ar   94  TYR94       0.0417
     82  CZ        29.0130   -0.1860  -18.0910 C.ar   94  TYR94       0.1957
     83  OH        29.4930   -1.0440  -19.0460 O.3    94  TYR94      -0.2866
     84  N         32.9790    4.9570   -6.8610 N.3   116  GLY116     -0.1210
     85  CA        34.1430    4.1600   -6.5150 C.3   116  GLY116      0.1956
     86  C         33.7720    2.7160   -6.2500 C.2   116  GLY116      0.2612
     87  O         32.5940    2.3540   -6.2700 O.2   116  GLY116     -0.2717
     88  N         34.7870    1.8920   -5.9980 N.am  117  ALA117     -0.1965
     89  CA        34.5910    0.4780   -5.7290 C.3   117  ALA117      0.1728
     90  C         34.1110    0.2850   -4.2970 C.2   117  ALA117      0.2617
     91  O         34.4870    1.0450   -3.3960 O.2   117  ALA117     -0.2715
     92  CB        35.8890   -0.2870   -5.9710 C.3   117  ALA117      0.0334
     93  N         33.2790   -0.7300   -4.0900 N.am  118  SER118     -0.1936
     94  CA        32.7520   -1.0350   -2.7640 C.3   118  SER118      0.2055
     95  C         33.8600   -1.2810   -1.7400 C.2   118  SER118      0.2642
     96  O         33.7500   -0.8410   -0.5900 O.2   118  SER118     -0.2714
     97  CB        31.8310   -2.2540   -2.8190 C.3   118  SER118      0.2130
     98  OG        32.5120   -3.3760   -3.3690 O.3   118  SER118     -0.2179
     99  N         34.9180   -1.9880   -2.1440 N.am  119  GLN119     -0.1976
    100  CA        35.9760   -2.3370   -1.1970 C.3   119  GLN119      0.1601
    101  C         36.6850   -1.0960   -0.6780 C.2   119  GLN119      0.2287
    102  O         37.2060   -1.0970    0.4420 O.2   119  GLN119     -0.2864
    103  CB        36.9810   -3.3630   -1.7580 C.3   119  GLN119      0.0394
    104  CG        37.5970   -3.0460   -3.1160 C.3   119  GLN119      0.0908
    105  CD        36.7270   -3.5210   -4.2650 C.2   119  GLN119      0.2608
    106  OE1       35.5340   -3.2220   -4.3190 O.2   119  GLN119     -0.2717
    107  NE2       37.3170   -4.2770   -5.1840 N.am  119  GLN119     -0.0878
    108  N         24.6660   -6.6150   -5.8740 N.3   140  ASP140     -0.1225
    109  CA        24.4960   -6.8410   -7.2980 C.3   140  ASP140      0.1805
    110  C         25.7410   -6.4260   -8.0940 C.2   140  ASP140      0.2598
    111  O         25.6430   -6.0970   -9.2760 O.2   140  ASP140     -0.2718
    112  CB        23.2570   -6.0880   -7.8120 C.3   140  ASP140      0.1424
    113  CG        22.7550   -6.6250   -9.1350 C.2   140  ASP140      0.3668
    114  OD1       23.1180   -7.7690   -9.5020 O.co2 140  ASP140     -0.2456
    115  OD2       21.9970   -5.9030   -9.8190 O.co2 140  ASP140     -0.2456
    116  N         26.9010   -6.4420   -7.4460 N.am  141  HIS141     -0.1961
    117  CA        28.1600   -6.1060   -8.1120 C.3   141  HIS141      0.1787
    118  C         28.9360   -7.3620   -8.5180 C.2   141  HIS141      0.2620
    119  O         28.3350   -8.3970   -8.7860 O.2   141  HIS141     -0.2715
    120  CB        29.0030   -5.1480   -7.2510 C.3   141  HIS141      0.0785
    121  CG        29.3430   -5.6800   -5.8910 C.ar  141  HIS141      0.0821
    122  ND1       28.5220   -6.5400   -5.1930 N.ar  141  HIS141     -0.2267
    123  CD2       30.4020   -5.4300   -5.0800 C.ar  141  HIS141      0.1154
    124  CE1       29.0790   -6.8300   -4.0310 C.ar  141  HIS141      0.1986
    125  NE2       30.2140   -6.1600   -3.9320 N.ar  141  HIS141     -0.2212
    126  N         30.2620   -7.2750   -8.5840 N.am  142  TRP142     -0.1960
    127  CA        31.0600   -8.4380   -8.9570 C.3   142  TRP142      0.1771
    128  C         30.7540   -9.6130   -8.0340 C.2   142  TRP142      0.2619
    129  O         30.7510   -9.4750   -6.8180 O.2   142  TRP142     -0.2715
    130  CB        32.5580   -8.1140   -9.0230 C.3   142  TRP142      0.0590
    131  CG        33.0410   -7.9490  -10.4680 C.ar  142  TRP142      0.0006
    132  CD1       32.5930   -7.0290  -11.3850 C.ar  142  TRP142      0.0946
    133  CD2       34.0360   -8.7330  -11.1520 C.ar  142  TRP142      0.0152
    134  NE1       33.2450   -7.1900  -12.5850 N.ar  142  TRP142     -0.2442
    135  CE2       34.1340   -8.2280  -12.4730 C.ar  142  TRP142      0.0810
    136  CE3       34.8530   -9.8100  -10.7800 C.ar  142  TRP142      0.0012
    137  CZ2       35.0190   -8.7620  -13.4200 C.ar  142  TRP142      0.0191
    138  CZ3       35.7320  -10.3400  -11.7270 C.ar  142  TRP142      0.0001
    139  CH2       35.8060   -9.8140  -13.0280 C.ar  142  TRP142      0.0015
    140  N         30.4780  -10.7650   -8.6320 N.am  143  LYS143     -0.1977
    141  CA        29.9520  -11.8820   -7.8830 C.3   143  LYS143      0.1596
    142  C         30.9410  -12.3650   -6.8260 C.2   143  LYS143      0.2287
    143  O         30.5360  -12.7520   -5.7210 O.2   143  LYS143     -0.2864
    144  CB        29.4940  -13.0200   -8.8010 C.3   143  LYS143      0.0298
    145  CG        28.4060  -12.6260   -9.8080 C.3   143  LYS143      0.0038
    146  CD        27.3320  -11.7140   -9.2020 C.3   143  LYS143      0.0206
    147  CE        26.7370  -10.8310  -10.2940 C.3   143  LYS143      0.1093
    148  NZ        25.9620   -9.6880   -9.7670 N.3   143  LYS143     -0.1314
    149  N         32.8750  -10.5550   -5.1240 N.3   145  ARG145     -0.1245
    150  CA        32.9560   -9.5650   -4.0490 C.3   145  ARG145      0.1563
    151  C         31.8650   -9.7480   -2.9940 C.2   145  ARG145      0.2260
    152  O         31.8780   -9.0530   -1.9760 O.2   145  ARG145     -0.2867
    153  CB        32.8390   -8.1330   -4.5770 C.3   145  ARG145      0.0307
    154  CG        34.0140   -7.6070   -5.4080 C.3   145  ARG145      0.0489
    155  CD        35.3490   -7.5410   -4.6740 C.3   145  ARG145      0.2205
    156  NE        35.2650   -7.0290   -3.3060 N.pl3 145  ARG145     -0.0865
    157  CZ        36.2820   -7.0820   -2.4470 C.cat 145  ARG145      0.5346
    158  NH1       37.4370   -7.6070   -2.8330 N.pl3 145  ARG145      0.1354
    159  NH2       36.1500   -6.6240   -1.2100 N.pl3 145  ARG145      0.1354
    160  N         21.4380  -10.5310   -5.4320 N.3   168  ASP168     -0.1225
    161  CA        21.0360  -10.9860   -6.7530 C.3   168  ASP168      0.1805
    162  C         22.0250  -12.0490   -7.2820 C.2   168  ASP168      0.2597
    163  O         23.1690  -12.1240   -6.8230 O.2   168  ASP168     -0.2718
    164  CB        20.8970   -9.7980   -7.7190 C.3   168  ASP168      0.1424
    165  CG        20.2690  -10.1990   -9.0590 C.2   168  ASP168      0.3668
    166  OD1       19.4880  -11.1790   -9.0660 O.co2 168  ASP168     -0.2456
    167  OD2       20.5650   -9.5470  -10.1030 O.co2 168  ASP168     -0.2456
    168  N         21.5590  -12.8860   -8.2130 N.am  169  ASN169     -0.1974
    169  CA        22.4140  -13.8240   -8.9810 C.3   169  ASN169      0.1688
    170  C         23.1310  -14.9200   -8.1970 C.2   169  ASN169      0.2292
    171  O         24.2540  -15.3140   -8.5430 O.2   169  ASN169     -0.2864
    172  CB        23.4480  -13.0550   -9.8140 C.3   169  ASN169      0.1181
    173  CG        22.8230  -11.9750  -10.6450 C.2   169  ASN169      0.2629
    174  OD1       23.0230  -10.7920  -10.3790 O.2   169  ASN169     -0.2716
    175  ND2       22.0330  -12.3690  -11.6500 N.am  169  ASN169     -0.0877
    176  N         22.7620  -17.7200  -10.9370 N.3   172  VAL172     -0.1231
    177  CA        23.3630  -17.3310  -12.2090 C.3   172  VAL172      0.1678
    178  C         23.6740  -15.8360  -12.2470 C.2   172  VAL172      0.2434
    179  O         22.7650  -15.0230  -12.0960 O.2   172  VAL172     -0.2733
    180  CB        22.4580  -17.7080  -13.4150 C.3   172  VAL172      0.0265
    181  CG1       23.1260  -17.3020  -14.7360 C.3   172  VAL172      0.0020
    182  CG2       22.1510  -19.2060  -13.4110 C.3   172  VAL172      0.0020
    183  N         24.9580  -15.4680  -12.4790 N.am  173  PRO173     -0.2729
    184  CA        26.0970  -16.3780  -12.7230 C.3   173  PRO173      0.1401
    185  C         26.5530  -17.1670  -11.4970 C.2   173  PRO173      0.2269
    186  O         27.4390  -18.0010  -11.6200 O.2   173  PRO173     -0.2865
    187  CB        27.2250  -15.4430  -13.1940 C.3   173  PRO173      0.0296
    188  CG        26.5650  -14.1390  -13.5130 C.3   173  PRO173      0.0237
    189  CD        25.3370  -14.0560  -12.6570 C.3   173  PRO173      0.0939
    190  N         16.7500  -15.6880  -14.2140 N.3   197  LEU197     -0.1231
    191  CA        17.6860  -14.7040  -14.7330 C.3   197  LEU197      0.1693
    192  C         16.8850  -13.6970  -15.5470 C.2   197  LEU197      0.2591
    193  O         16.0310  -14.0830  -16.3430 O.2   197  LEU197     -0.2718
    194  CB        18.7400  -15.3880  -15.6020 C.3   197  LEU197      0.0284
    195  CG        19.8570  -14.4870  -16.1050 C.3   197  LEU197      0.0019
    196  CD1       20.6180  -13.8910  -14.9160 C.3   197  LEU197      0.0001
    197  CD2       20.7800  -15.2530  -17.0510 C.3   197  LEU197      0.0001
    198  N         17.1580  -12.4120  -15.3290 N.am  198  GLU198     -0.1979
    199  CA        16.4400  -11.3300  -15.9940 C.3   198  GLU198      0.1602
    200  C         16.2810  -11.5300  -17.5100 C.2   198  GLU198      0.2287
    201  O         17.2570  -11.8320  -18.2250 O.2   198  GLU198     -0.2864
    202  CB        17.0980   -9.9760  -15.6980 C.3   198  GLU198      0.0415
    203  CG        18.5700   -9.8640  -16.0820 C.3   198  GLU198      0.1163
    204  CD        19.5160  -10.1160  -14.9040 C.2   198  GLU198      0.3649
    205  OE1       19.2120  -10.9890  -14.0630 O.co2 198  GLU198     -0.2457
    206  OE2       20.5670   -9.4430  -14.8300 O.co2 198  GLU198     -0.2457
@<TRIPOS>BOND
     1     1     2    1
     2     2     5    1
     3     2     3    1
     4     5     6    1
     5     4     3    2
     6     6     7   ar
     7     6     8   ar
     8     7     9   ar
     9    11     8   ar
    10    11    13   ar
    11     8    10   ar
    12     9    10   ar
    13    13    14   ar
    14    10    12   ar
    15    38    37    1
    16    83    82    1
    17    14    12   ar
    18    80    82   ar
    19    80    78   ar
    20   201   200    2
    21    82    81   ar
    22    15    16    1
    23    37    35   ar
    24    37    36   ar
    25   200   199    1
    26    78    77   ar
    27    35    33   ar
    28    36    34   ar
    29   197   195    1
    30    81    79   ar
    31    16    19    1
    32    16    17    1
    33    71    69   am
    34   193   192    2
    35    19    20    1
    36    20    21    1
    37    22    21    1
    38    77    79   ar
    39    77    76    1
    40   195   194    1
    41   195   196    1
    42   203   202    1
    43   203   204    1
    44    70    69    2
    45    72    73    1
    46   199   202    1
    47   199   198    1
    48    33    32   ar
    49    69    68    1
    50    34    32   ar
    51   194   191    1
    52    17    18    2
    53   192   198   am
    54   192   191    1
    55    73    76    1
    56    73    74    1
    57    32    31    1
    58   204   206   ar
    59   204   205   ar
    60   181   180    1
    61   191   190    1
    62    74    75    2
    63    68    65    1
    64    30    29    2
    65    29    28    1
    66    31    28    1
    67    67    66    2
    68    66    65    1
    69   188   187    1
    70   188   189    1
    71   137   139   ar
    72   137   135   ar
    73   180   182    1
    74   180   177    1
    75    28    27    1
    76    65    64    1
    77   187   184    1
    78   139   138   ar
    79   184   183    1
    80   184   185    1
    81   189   183    1
    82   134   135   ar
    83   134   132   ar
    84   183   178   am
    85   135   133   ar
    86   178   177    1
    87   178   179    2
    88   177   176    1
    89    64    58   am
    90    55    53   ar
    91    63    62    1
    92   138   136   ar
    93   175   173   am
    94   186   185    2
    95   132   131   ar
    96    53    52    1
    97    53    54   ar
    98    59    58    2
    99   133   136   ar
   100   133   131   ar
   101    58    57    1
   102    52    51    1
   103   173   174    2
   104   173   172    1
   105    61    62    1
   106    61    60    1
   107   131   130    1
   108   147   148    1
   109   147   146    1
   110   167   165   ar
   111   115   113   ar
   112   172   169    1
   113   145   146    1
   114   145   144    1
   115    57    60    1
   116    57    56    1
   117   114   113   ar
   118    51    48    1
   119    56    49   am
   120   111   110    2
   121   113   112    1
   122   166   165   ar
   123   165   164    1
   124   130   127    1
   125   169   168    1
   126   169   170    1
   127   127   126    1
   128   127   128    1
   129    49    50    2
   130    49    48    1
   131   144   141    1
   132   119   118    2
   133   140   128   am
   134   140   141    1
   135   126   118   am
   136    25    26    2
   137    25    24    1
   138   171   170    2
   139   118   117    1
   140    48    47    1
   141   168   162   am
   142   117   116    1
   143   117   120    1
   144    24    23    1
   145   110   116   am
   146   110   109    1
   147   128   129    2
   148   141   142    1
   149   112   109    1
   150   164   161    1
   151   109   108    1
   152   162   163    2
   153   162   161    1
   154   120   121    1
   155    47    41   am
   156    84    85    1
   157   142   143    2
   158   161   160    1
   159    42    41    2
   160    85    86    1
   161    41    40    1
   162    87    86    2
   163    86    88   am
   164    88    89    1
   165    92    89    1
   166   121   122   ar
   167   121   123   ar
   168    89    90    1
   169   154   155    1
   170   154   153    1
   171   122   124   ar
   172   107   105   am
   173   149   150    1
   174   123   125   ar
   175    40    39    1
   176    40    43    1
   177   155   156    1
   178   153   150    1
   179   106   105    2
   180    90    93   am
   181    90    91    2
   182   105   104    1
   183    93    94    1
   184   150   151    1
   185   124   125   ar
   186    43    44    1
   187    98    97    1
   188   156   157    2
   189   104   103    1
   190   151   152    2
   191   158   157    1
   192    97    94    1
   193    94    95    1
   194    44    45    1
   195   157   159    1
   196    99    95   am
   197    99   100    1
   198   103   100    1
   199    95    96    2
   200    45    46    1
   201   100   101    1
   202   101   102    2
