@<TRIPOS>MOLECULE
tmp/3a7hB00.pdb
 148 140 0 0 0
SMALL
GASTEIGER

@<TRIPOS>ATOM
      1  N         35.0220    2.2250   13.7770 N.3    23  ILE23      -0.1231
      2  CA        34.4600    3.1870   14.6880 C.3    23  ILE23       0.1692
      3  C         33.7640    4.3280   13.9860 C.2    23  ILE23       0.2593
      4  O         33.2430    5.2410   14.6670 O.2    23  ILE23      -0.2718
      5  CB        35.5210    3.7700   15.6440 C.3    23  ILE23       0.0266
      6  CG1       36.6860    4.3850   14.8720 C.3    23  ILE23       0.0019
      7  CG2       35.9760    2.6770   16.5920 C.3    23  ILE23       0.0020
      8  CD1       37.8370    4.7930   15.7610 C.3    23  ILE23       0.0001
      9  N         33.7500    4.2740   12.6500 N.am   24  GLY24      -0.1942
     10  CA        33.1100    5.3100   11.8680 C.3    24  GLY24       0.2014
     11  C         33.2320    5.0940   10.3740 C.2    24  GLY24       0.2639
     12  O         34.0100    4.2900    9.8710 O.2    24  GLY24      -0.2714
     13  N         32.4240    5.8280    9.6420 N.am   25  LYS25      -0.1963
     14  CA        32.4230    5.7570    8.2050 C.3    25  LYS25       0.1728
     15  C         32.1000    7.1690    7.8370 C.2    25  LYS25       0.2617
     16  O         30.9380    7.5680    7.8450 O.2    25  LYS25      -0.2715
     17  CB        31.3390    4.8040    7.6960 C.3    25  LYS25       0.0311
     18  CG        31.0230    4.9750    6.1950 C.3    25  LYS25       0.0038
     19  CD        29.8580    5.9450    5.9110 C.3    25  LYS25       0.0206
     20  CE        29.4740    5.9970    4.4040 C.3    25  LYS25       0.1093
     21  NZ        28.1290    6.6490    4.1520 N.3    25  LYS25      -0.1314
     22  N         33.1450    7.9380    7.5610 N.am   26  GLY26      -0.1940
     23  CA        32.9530    9.3290    7.1930 C.3    26  GLY26       0.2014
     24  C         32.4670    9.4800    5.7700 C.2    26  GLY26       0.2640
     25  O         31.6940    8.6490    5.2730 O.2    26  GLY26      -0.2714
     26  N         32.9320   10.5280    5.1000 N.am   27  SER27      -0.1935
     27  CA        32.5050   10.7880    3.7240 C.3    27  SER27       0.2055
     28  C         33.3230   10.0440    2.6640 C.2    27  SER27       0.2643
     29  O         32.8310    9.7960    1.5540 O.2    27  SER27      -0.2714
     30  CB        32.5840   12.2940    3.4030 C.3    27  SER27       0.2130
     31  OG        32.6840   13.0970    4.5680 O.3    27  SER27      -0.2179
     32  N         34.5610    9.6860    2.9970 N.am   28  PHE28      -0.1959
     33  CA        35.4220    9.0610    2.0090 C.3    28  PHE28       0.1771
     34  C         35.8190    7.6220    2.2630 C.2    28  PHE28       0.2620
     35  O         35.7440    6.7700    1.3660 O.2    28  PHE28      -0.2715
     36  CB        36.6570    9.9470    1.8360 C.3    28  PHE28       0.0574
     37  CG        36.3250   11.3330    1.3350 C.ar   28  PHE28      -0.0200
     38  CD1       37.2170   12.3950    1.5130 C.ar   28  PHE28      -0.0042
     39  CD2       35.1140   11.5750    0.6760 C.ar   28  PHE28      -0.0042
     40  CE1       36.9140   13.6880    1.0440 C.ar   28  PHE28      -0.0003
     41  CE2       34.7890   12.8540    0.1990 C.ar   28  PHE28      -0.0003
     42  CZ        35.6910   13.9180    0.3810 C.ar   28  PHE28      -0.0000
     43  N         36.2750    7.3420    3.4700 N.am   29  GLY29      -0.1954
     44  CA        36.6470    5.9750    3.7620 C.3    29  GLY29       0.1869
     45  C         36.0020    5.5680    5.0620 C.2    29  GLY29       0.2309
     46  O         34.9840    6.1530    5.4680 O.2    29  GLY29      -0.2863
     47  N         36.7750    4.4290    9.2960 N.3    31  VAL31      -0.1245
     48  CA        37.6570    4.6650   10.4260 C.3    31  VAL31       0.1561
     49  C         37.6160    3.5350   11.4290 C.2    31  VAL31       0.2260
     50  O         36.5370    3.0560   11.8360 O.2    31  VAL31      -0.2867
     51  CB        37.3460    5.9890   11.1260 C.3    31  VAL31       0.0252
     52  CG1       38.4890    6.3000   12.1580 C.3    31  VAL31       0.0019
     53  CG2       37.2400    7.0810   10.0910 C.3    31  VAL31       0.0019
     54  N         43.7860    5.8050   15.6880 N.3    44  ALA44      -0.1245
     55  CA        42.5850    5.7620   14.8600 C.3    44  ALA44       0.1562
     56  C         43.1610    5.5920   13.4380 C.2    44  ALA44       0.2260
     57  O         44.1130    6.2620   13.0670 O.2    44  ALA44      -0.2867
     58  CB        41.7630    7.0940   14.9770 C.3    44  ALA44       0.0290
     59  N         42.2280    5.6370    9.4180 N.3    46  LYS46      -0.1245
     60  CA        41.2200    5.9470    8.3830 C.3    46  LYS46       0.1561
     61  C         41.7330    5.3090    7.0960 C.2    46  LYS46       0.2260
     62  O         42.8730    5.5780    6.6840 O.2    46  LYS46      -0.2867
     63  CB        41.1000    7.4780    8.2550 C.3    46  LYS46       0.0271
     64  CG        40.1270    8.0340    7.2010 C.3    46  LYS46       0.0035
     65  CD        39.8830    9.5430    7.4920 C.3    46  LYS46       0.0206
     66  CE        38.9160   10.2100    6.5450 C.3    46  LYS46       0.1093
     67  NZ        38.6930   11.6440    6.9830 N.3    46  LYS46      -0.1314
     68  N         43.9020   18.2800    3.6180 N.3    63  GLU63      -0.1245
     69  CA        43.5600   18.1730    5.0320 C.3    63  GLU63       0.1567
     70  C         44.7480   17.5850    5.7790 C.2    63  GLU63       0.2260
     71  O         45.1340   18.0520    6.8420 O.2    63  GLU63      -0.2867
     72  CB        42.2940   17.3160    5.1810 C.3    63  GLU63       0.0388
     73  CG        41.8080   17.1850    6.6090 C.3    63  GLU63       0.1160
     74  CD        40.4320   16.5070    6.6780 C.2    63  GLU63       0.3649
     75  OE1       39.6950   16.4900    5.6630 O.co2  63  GLU63      -0.2457
     76  OE2       40.0770   16.0040    7.7560 O.co2  63  GLU63      -0.2457
     77  N         44.1410   17.3860   17.0060 N.3    76  THR76      -0.1218
     78  CA        44.3940   15.9570   16.7520 C.3    76  THR76       0.1862
     79  C         45.7030   15.6940   15.9480 C.2    76  THR76       0.2287
     80  O         45.9110   16.2210   14.8380 O.2    76  THR76      -0.2866
     81  CB        43.2300   15.3530   15.9250 C.3    76  THR76       0.1770
     82  OG1       43.1840   16.0500   14.6780 O.3    76  THR76      -0.2211
     83  CG2       41.9450   15.5350   16.6100 C.3    76  THR76       0.0375
     84  N         46.0530    8.3730   12.8220 N.3    92  MET92      -0.1230
     85  CA        45.8230    9.5660   13.6080 C.3    92  MET92       0.1702
     86  C         45.6350    9.2220   15.0990 C.2    92  MET92       0.2592
     87  O         45.3840    8.0600   15.4670 O.2    92  MET92      -0.2718
     88  CB        44.5640   10.2790   13.0880 C.3    92  MET92       0.0401
     89  CG        44.7040   11.1520   11.7510 C.3    92  MET92       0.0596
     90  SD        42.9770   10.9140   11.1090 S.3    92  MET92      -0.1393
     91  CE        42.7250   12.3570    9.9350 C.3    92  MET92       0.0692
     92  N         45.7510   10.2430   15.9520 N.am   93  GLU93      -0.1966
     93  CA        45.5680   10.1190   17.3940 C.3    93  GLU93       0.1733
     94  C         44.1260    9.5850   17.6690 C.2    93  GLU93       0.2616
     95  O         43.1530   10.0610   17.1040 O.2    93  GLU93      -0.2715
     96  CB        45.7160   11.4960   18.0230 C.3    93  GLU93       0.0429
     97  CG        45.6360   11.5480   19.5640 C.3    93  GLU93       0.1163
     98  CD        45.7730   12.9970   20.0850 C.2    93  GLU93       0.3649
     99  OE1       45.7950   13.1990   21.3100 O.co2  93  GLU93      -0.2457
    100  OE2       45.8590   13.9330   19.2470 O.co2  93  GLU93      -0.2457
    101  N         44.0220    8.5950   18.5220 N.am   94  TYR94      -0.1960
    102  CA        42.7280    8.0460   18.8760 C.3    94  TYR94       0.1771
    103  C         42.1440    8.8180   20.0590 C.2    94  TYR94       0.2619
    104  O         42.8010    9.0350   21.0470 O.2    94  TYR94      -0.2715
    105  CB        42.8670    6.5540   19.2470 C.3    94  TYR94       0.0574
    106  CG        41.5530    5.9210   19.7390 C.ar   94  TYR94      -0.0198
    107  CD1       40.5510    5.5420   18.8430 C.ar   94  TYR94      -0.0009
    108  CD2       41.3180    5.7230   21.1050 C.ar   94  TYR94      -0.0009
    109  CE1       39.3370    4.9760   19.3050 C.ar   94  TYR94       0.0417
    110  CE2       40.1210    5.1610   21.5630 C.ar   94  TYR94       0.0417
    111  CZ        39.1570    4.7930   20.6570 C.ar   94  TYR94       0.1957
    112  OH        38.0030    4.1930   21.1040 O.3    94  TYR94      -0.2866
    113  N         40.8600    9.1390   19.9920 N.am   95  LEU95      -0.1963
    114  CA        40.2140    9.8910   21.0600 C.3    95  LEU95       0.1728
    115  C         38.8560    9.2500   21.1430 C.2    95  LEU95       0.2616
    116  O         38.0030    9.5100   20.3050 O.2    95  LEU95      -0.2715
    117  CB        40.0750   11.3370   20.6270 C.3    95  LEU95       0.0311
    118  CG        41.3990   12.0750   20.4650 C.3    95  LEU95       0.0022
    119  CD1       41.1170   13.3630   19.7380 C.3    95  LEU95       0.0001
    120  CD2       42.0510   12.2940   21.8220 C.3    95  LEU95       0.0001
    121  N         38.7010    8.3600   22.0940 N.am   96  GLY96      -0.1955
    122  CA        37.4530    7.6240   22.1730 C.3    96  GLY96       0.1869
    123  C         36.4440    8.1700   23.1510 C.2    96  GLY96       0.2309
    124  O         35.4580    7.4880   23.4290 O.2    96  GLY96      -0.2863
    125  N         32.9080   18.8910   15.9280 N.3   142  ASN142     -0.1240
    126  CA        34.3650   18.8450   15.6020 C.3   142  ASN142      0.1653
    127  C         35.3250   19.0270   16.7770 C.2   142  ASN142      0.2266
    128  O         36.5410   19.2510   16.6240 O.2   142  ASN142     -0.2867
    129  CB        34.6550   19.8200   14.4570 C.3   142  ASN142      0.1155
    130  CG        34.0550   19.3330   13.1240 C.2   142  ASN142      0.2627
    131  OD1       33.8570   18.1320   12.9350 O.2   142  ASN142     -0.2716
    132  ND2       33.7880   20.2390   12.2140 N.am  142  ASN142     -0.0877
    133  N         36.6840   16.8720   19.6900 N.3   144  LEU144     -0.1245
    134  CA        36.7500   15.5030   20.2250 C.3   144  LEU144      0.1561
    135  C         37.4780   15.4050   21.5570 C.2   144  LEU144      0.2260
    136  O         38.3860   16.2150   21.8790 O.2   144  LEU144     -0.2867
    137  CB        37.4430   14.5710   19.1930 C.3   144  LEU144      0.0270
    138  CG        36.8250   14.6140   17.8010 C.3   144  LEU144      0.0019
    139  CD1       37.5780   13.6070   16.8670 C.3   144  LEU144      0.0001
    140  CD2       35.3140   14.2850   17.8740 C.3   144  LEU144      0.0001
    141  N         38.7790   17.6720   12.3310 N.3   155  ASP155     -0.1239
    142  CA        38.1480   18.0010   11.0680 C.3   155  ASP155      0.1674
    143  C         38.5500   19.3450   10.4140 C.2   155  ASP155      0.2266
    144  O         37.7630   20.2710   10.2980 O.2   155  ASP155     -0.2867
    145  CB        36.6170   17.8720   11.2260 C.3   155  ASP155      0.1410
    146  CG        35.8530   17.9230    9.8630 C.2   155  ASP155      0.3668
    147  OD1       36.1470   18.8350    9.0540 O.co2 155  ASP155     -0.2456
    148  OD2       34.9550   17.0740    9.5990 O.co2 155  ASP155     -0.2456
@<TRIPOS>BOND
     1    41    42   ar
     2    41    39   ar
     3    42    40   ar
     4    39    37   ar
     5    40    38   ar
     6    37    38   ar
     7    37    36    1
     8    35    34    2
     9    29    28    2
    10    36    33    1
    11    33    34    1
    12    33    32    1
    13    34    43   am
    14    28    32   am
    15    28    27    1
    16    30    27    1
    17    30    31    1
    18    43    44    1
    19    68    69    1
    20    27    26    1
    21    44    45    1
    22    21    20    1
    23    20    19    1
    24    69    72    1
    25    69    70    1
    26    45    46    2
    27    26    24   am
    28    72    73    1
    29    25    24    2
    30    75    74   ar
    31    24    23    1
    32    70    71    2
    33    19    18    1
    34    18    17    1
    35    66    67    1
    36    66    65    1
    37    73    74    1
    38    74    76   ar
    39    62    61    2
    40    61    60    1
    41    23    22    1
    42    64    65    1
    43    64    63    1
    44    22    15   am
    45    17    14    1
    46    15    16    2
    47    15    14    1
    48    14    13    1
    49    63    60    1
    50    60    59    1
    51   147   146   ar
    52    47    48    1
    53   148   146   ar
    54    13    11   am
    55   146   145    1
    56    12    11    2
    57    91    90    1
    58    53    51    1
    59   144   143    2
    60    11    10    1
    61   143   142    1
    62    48    51    1
    63    48    49    1
    64   142   145    1
    65   142   141    1
    66    90    89    1
    67    51    52    1
    68    49    50    2
    69    89    88    1
    70    10     9    1
    71   132   130   am
    72     9     3   am
    73    84    85    1
    74   131   130    2
    75    57    56    2
    76    88    85    1
    77   130   129    1
    78    56    55    1
    79    85    86    1
    80     1     2    1
    81     3     4    2
    82     3     2    1
    83   129   126    1
    84    82    81    1
    85     2     5    1
    86    80    79    2
    87    55    58    1
    88    55    54    1
    89     6     5    1
    90     6     8    1
    91    86    87    2
    92    86    92   am
    93   126   125    1
    94   126   127    1
    95     5     7    1
    96    81    83    1
    97    81    78    1
    98    79    78    1
    99    92    93    1
   100   128   127    2
   101    78    77    1
   102   139   138    1
   103    95    94    2
   104    93    94    1
   105    93    96    1
   106    94   101   am
   107   138   140    1
   108   138   137    1
   109    96    97    1
   110   101   102    1
   111   107   109   ar
   112   107   106   ar
   113   102   105    1
   114   102   103    1
   115   137   134    1
   116   100    98   ar
   117   105   106    1
   118   109   111   ar
   119    97    98    1
   120   133   134    1
   121   119   118    1
   122   106   108   ar
   123   113   103   am
   124   113   114    1
   125   103   104    2
   126    98    99   ar
   127   134   135    1
   128   116   115    2
   129   118   117    1
   130   118   120    1
   131   117   114    1
   132   111   112    1
   133   111   110   ar
   134   114   115    1
   135   108   110   ar
   136   115   121   am
   137   135   136    2
   138   121   122    1
   139   122   123    1
   140   123   124    2
