@<TRIPOS>MOLECULE
tmp/3a7iA00.pdb
 90 83 0 0 0
SMALL
GASTEIGER

@<TRIPOS>ATOM
      1  N         -8.3350   21.3400   20.5770 N.3    18  ILE18      -0.1231
      2  CA        -8.0690   20.9250   19.2190 C.3    18  ILE18       0.1692
      3  C         -6.7680   20.1510   19.1560 C.2    18  ILE18       0.2592
      4  O         -6.2440   19.8860   18.0770 O.2    18  ILE18      -0.2718
      5  CB        -7.9760   22.1240   18.2710 C.3    18  ILE18       0.0266
      6  CG1       -6.9000   23.0940   18.7670 C.3    18  ILE18       0.0019
      7  CG2       -9.3550   22.7860   18.1430 C.3    18  ILE18       0.0020
      8  CD1       -6.5910   24.1870   17.7990 C.3    18  ILE18       0.0001
      9  N         -6.2240   19.8050   20.3150 N.am   19  GLY19      -0.1957
     10  CA        -4.9840   19.0510   20.3180 C.3    19  GLY19       0.1869
     11  C         -4.1530   19.1130   21.5810 C.2    19  GLY19       0.2309
     12  O         -4.4810   19.8020   22.5420 O.2    19  GLY19      -0.2863
     13  N         -3.8740   22.4150   23.3130 N.3    26  VAL26      -0.1245
     14  CA        -4.1100   23.5080   22.3920 C.3    26  VAL26       0.1561
     15  C         -5.6200   23.6430   22.2070 C.2    26  VAL26       0.2260
     16  O         -6.3430   22.6440   22.0250 O.2    26  VAL26      -0.2867
     17  CB        -3.4570   23.2470   21.0260 C.3    26  VAL26       0.0252
     18  CG1       -3.5310   24.5200   20.1500 C.3    26  VAL26       0.0019
     19  CG2       -2.0170   22.8110   21.2240 C.3    26  VAL26       0.0019
     20  N         -5.2670   30.2330   17.9320 N.3    39  ALA39      -0.1245
     21  CA        -4.9830   28.9890   18.6630 C.3    39  ALA39       0.1562
     22  C         -4.3660   29.4260   19.9760 C.2    39  ALA39       0.2260
     23  O         -3.5370   30.3190   19.9870 O.2    39  ALA39      -0.2867
     24  CB        -4.0130   28.1000   17.8730 C.3    39  ALA39       0.0290
     25  N         -2.3740   27.9060   23.2850 N.3    41  LYS41      -0.1245
     26  CA        -1.7030   26.7750   23.9410 C.3    41  LYS41       0.1561
     27  C         -1.7310   27.1700   25.4440 C.2    41  LYS41       0.2260
     28  O         -1.2930   28.2810   25.8280 O.2    41  LYS41      -0.2867
     29  CB        -0.2740   26.6370   23.4020 C.3    41  LYS41       0.0271
     30  CG         0.4690   25.3720   23.9090 C.3    41  LYS41       0.0035
     31  CD         1.9670   25.3070   23.4700 C.3    41  LYS41       0.0206
     32  CE         2.1850   24.9970   21.9880 C.3    41  LYS41       0.1093
     33  NZ         3.6280   24.6450   21.7420 N.3    41  LYS41      -0.1314
     34  N          4.4570   30.3240   12.4460 N.3    71  THR71      -0.1218
     35  CA         3.2190   30.6310   13.1610 C.3    71  THR71       0.1862
     36  C          3.3300   31.9640   13.9170 C.2    71  THR71       0.2287
     37  O          4.2120   32.1300   14.7730 O.2    71  THR71      -0.2866
     38  CB         2.8820   29.5530   14.1790 C.3    71  THR71       0.1770
     39  OG1        4.0100   29.3450   15.0150 O.3    71  THR71      -0.2211
     40  CG2        2.6180   28.2020   13.4840 C.3    71  THR71       0.0375
     41  N         -1.5890   32.1180   19.4740 N.3    87  MET87      -0.1230
     42  CA        -0.9700   32.0580   18.1520 C.3    87  MET87       0.1702
     43  C         -1.9740   32.0260   17.0170 C.2    87  MET87       0.2592
     44  O         -3.1350   31.9060   17.2070 O.2    87  MET87      -0.2718
     45  CB        -0.1330   30.7600   18.0470 C.3    87  MET87       0.0401
     46  CG         0.6730   30.4230   19.3270 C.3    87  MET87       0.0596
     47  SD         1.5070   28.8400   19.0580 S.3    87  MET87      -0.1393
     48  CE         2.5260   29.4780   17.8290 C.3    87  MET87       0.0692
     49  N         -1.3920   32.1210   15.8300 N.am   88  GLU88      -0.1966
     50  CA        -2.0830   32.0440   14.5560 C.3    88  GLU88       0.1733
     51  C         -2.7840   30.6930   14.5040 C.2    88  GLU88       0.2616
     52  O         -2.2050   29.6880   14.8330 O.2    88  GLU88      -0.2715
     53  CB        -1.0070   32.0870   13.4960 C.3    88  GLU88       0.0429
     54  CG        -1.4980   31.8370   12.1200 C.3    88  GLU88       0.1163
     55  CD        -0.4730   32.2300   11.1000 C.2    88  GLU88       0.3649
     56  OE1       -0.8770   32.4360    9.9210 O.co2  88  GLU88      -0.2457
     57  OE2        0.7260   32.3420   11.4060 O.co2  88  GLU88      -0.2457
     58  N         -4.0420   30.6860   14.1030 N.am   89  TYR89      -0.1960
     59  CA        -4.8040   29.4580   13.9720 C.3    89  TYR89       0.1771
     60  C         -4.5920   28.9510   12.5190 C.2    89  TYR89       0.2619
     61  O         -4.6380   29.7280   11.5510 O.2    89  TYR89      -0.2715
     62  CB        -6.2900   29.7490   14.1430 C.3    89  TYR89       0.0574
     63  CG        -7.1050   28.5480   13.7980 C.ar   89  TYR89      -0.0198
     64  CD1       -7.1390   27.4650   14.6460 C.ar   89  TYR89      -0.0009
     65  CD2       -7.8290   28.5040   12.6020 C.ar   89  TYR89      -0.0009
     66  CE1       -7.8720   26.3370   14.3600 C.ar   89  TYR89       0.0417
     67  CE2       -8.5680   27.3840   12.2860 C.ar   89  TYR89       0.0417
     68  CZ        -8.5950   26.3210   13.1570 C.ar   89  TYR89       0.1957
     69  OH        -9.4130   25.2420   12.8640 O.3    89  TYR89      -0.2866
     70  N         -4.3300   27.6740   12.3550 N.am   90  LEU90      -0.1977
     71  CA        -4.1070   27.1280   11.0020 C.3    90  LEU90       0.1596
     72  C         -4.9940   25.9040   10.9360 C.2    90  LEU90       0.2287
     73  O         -4.7190   24.9010   11.6130 O.2    90  LEU90      -0.2864
     74  CB        -2.6100   26.7920   10.8120 C.3    90  LEU90       0.0297
     75  CG        -1.7140   28.0470   10.8250 C.3    90  LEU90       0.0022
     76  CD1       -0.2620   27.7480   10.9550 C.3    90  LEU90       0.0001
     77  CD2       -2.0320   28.8140    9.5140 C.3    90  LEU90       0.0001
     78  N          2.4760   23.1780    9.4050 N.3   139  LEU139     -0.1245
     79  CA         1.0510   23.3570    9.5020 C.3   139  LEU139      0.1561
     80  C          0.5200   24.1390    8.3490 C.2   139  LEU139      0.2260
     81  O          1.1920   25.0360    7.8640 O.2   139  LEU139     -0.2867
     82  CB         0.6870   24.0990   10.8000 C.3   139  LEU139      0.0270
     83  CG         1.1100   23.4230   12.1200 C.3   139  LEU139      0.0019
     84  CD1        0.4980   24.2310   13.3330 C.3   139  LEU139      0.0001
     85  CD2        0.6930   21.9420   12.1670 C.3   139  LEU139      0.0001
     86  N          5.9600   25.3390   12.7880 N.3   149  ALA149     -0.1245
     87  CA         5.3980   25.4260   14.1430 C.3   149  ALA149      0.1562
     88  C          6.2690   24.6390   15.1100 C.2   149  ALA149      0.2260
     89  O          7.1840   23.9070   14.7340 O.2   149  ALA149     -0.2867
     90  CB         3.9740   24.8160   14.1180 C.3   149  ALA149      0.0290
@<TRIPOS>BOND
     1    81    80    2
     2    80    79    1
     3    78    79    1
     4    79    82    1
     5    77    75    1
     6    56    55   ar
     7    82    83    1
     8    74    75    1
     9    74    71    1
    10    75    76    1
    11    72    71    1
    12    72    73    2
    13    71    70    1
    14    55    57   ar
    15    55    54    1
    16    61    60    2
    17    54    53    1
    18    83    85    1
    19    83    84    1
    20    67    65   ar
    21    67    68   ar
    22    70    60   am
    23    34    35    1
    24    60    59    1
    25    65    63   ar
    26    86    87    1
    27    69    68    1
    28    68    66   ar
    29    35    36    1
    30    35    38    1
    31    40    38    1
    32    53    50    1
    33    63    62    1
    34    63    64   ar
    35    36    37    2
    36    59    58    1
    37    59    62    1
    38    58    51   am
    39    90    87    1
    40    87    88    1
    41    38    39    1
    42    66    64   ar
    43    51    50    1
    44    51    52    2
    45    50    49    1
    46    89    88    2
    47    49    43   am
    48    43    44    2
    49    43    42    1
    50     8     6    1
    51    48    47    1
    52    24    21    1
    53    20    21    1
    54    45    42    1
    55    45    46    1
    56     4     3    2
    57     7     5    1
    58    42    41    1
    59     5     6    1
    60     5     2    1
    61    21    22    1
    62    47    46    1
    63     3     2    1
    64     3     9   am
    65     2     1    1
    66    22    23    2
    67    18    17    1
    68     9    10    1
    69    10    11    1
    70    17    19    1
    71    17    14    1
    72    11    12    2
    73    33    32    1
    74    32    31    1
    75    16    15    2
    76    15    14    1
    77    14    13    1
    78    25    26    1
    79    29    30    1
    80    29    26    1
    81    31    30    1
    82    26    27    1
    83    27    28    2
