@<TRIPOS>MOLECULE
tmp/3a7kB06.pdb
 120 114 0 0 0
SMALL
GASTEIGER

@<TRIPOS>ATOM
      1  N         24.8460  -25.7850   10.4420 N.3     1  VAL1       -0.1245
      2  CA        26.0190  -25.3620    9.6270 C.3     1  VAL1        0.1561
      3  C         27.0350  -24.6130   10.4780 C.2     1  VAL1        0.2260
      4  O         26.6830  -23.8800   11.4010 O.2     1  VAL1       -0.2867
      5  CB        25.5740  -24.4750    8.4440 C.3     1  VAL1        0.0252
      6  CG1       26.7830  -23.8670    7.7470 C.3     1  VAL1        0.0019
      7  CG2       24.7680  -25.3150    7.4600 C.3     1  VAL1        0.0019
      8  N         24.3660  -16.8700    7.1780 N.3    74  SER74      -0.1202
      9  CA        23.6490  -18.0300    7.7000 C.3    74  SER74       0.2020
     10  C         22.9720  -18.7770    6.5550 C.2    74  SER74       0.2619
     11  O         22.7970  -18.2330    5.4620 O.2    74  SER74      -0.2717
     12  CB        22.5750  -17.6050    8.7080 C.3    74  SER74       0.2103
     13  OG        23.1430  -17.0820    9.8910 O.3    74  SER74      -0.2182
     14  N         22.6190  -20.0370    6.7990 N.am   75  VAL75      -0.1965
     15  CA        21.9080  -20.8220    5.7970 C.3    75  VAL75       0.1727
     16  C         20.4880  -20.9270    6.3460 C.2    75  VAL75       0.2616
     17  O         20.2700  -21.4910    7.4140 O.2    75  VAL75      -0.2715
     18  CB        22.5250  -22.2380    5.6080 C.3    75  VAL75       0.0290
     19  CG1       22.5460  -22.9890    6.9300 C.3    75  VAL75       0.0023
     20  CG2       21.7210  -23.0170    4.5720 C.3    75  VAL75       0.0023
     21  N         19.5280  -20.3440    5.6390 N.am   76  LEU76      -0.1977
     22  CA        18.1460  -20.3730    6.1000 C.3    76  LEU76       0.1596
     23  C         17.2270  -21.0650    5.0990 C.2    76  LEU76       0.2287
     24  O         17.5240  -21.1210    3.9050 O.2    76  LEU76      -0.2864
     25  CB        17.6470  -18.9440    6.3550 C.3    76  LEU76       0.0297
     26  CG        18.4740  -18.1020    7.3370 C.3    76  LEU76       0.0022
     27  CD1       17.8620  -16.7100    7.4840 C.3    76  LEU76       0.0001
     28  CD2       18.5290  -18.8040    8.6820 C.3    76  LEU76       0.0001
     29  N         23.0120  -11.8270    5.7310 N.3   103  TRP103     -0.1241
     30  CA        22.4220  -10.7830    6.5540 C.3   103  TRP103      0.1605
     31  C         23.4390   -9.7800    7.0850 C.2   103  TRP103      0.2264
     32  O         23.0700   -8.6920    7.5170 O.2   103  TRP103     -0.2867
     33  CB        21.6180  -11.3890    7.7180 C.3   103  TRP103      0.0550
     34  CG        22.3610  -12.3670    8.5900 C.ar  103  TRP103      0.0003
     35  CD1       22.3950  -13.7290    8.4510 C.ar  103  TRP103      0.0946
     36  CD2       23.1570  -12.0620    9.7430 C.ar  103  TRP103      0.0152
     37  NE1       23.1560  -14.2880    9.4460 N.ar  103  TRP103     -0.2442
     38  CE2       23.6370  -13.2900   10.2550 C.ar  103  TRP103      0.0810
     39  CE3       23.5120  -10.8720   10.3940 C.ar  103  TRP103      0.0012
     40  CZ2       24.4540  -13.3640   11.3930 C.ar  103  TRP103      0.0191
     41  CZ3       24.3280  -10.9430   11.5280 C.ar  103  TRP103      0.0001
     42  CH2       24.7890  -12.1860   12.0150 C.ar  103  TRP103      0.0015
     43  N         22.7100   -5.7600    8.2450 N.3   107  LEU107     -0.1245
     44  CA        23.0110   -5.3170    9.5960 C.3   107  LEU107      0.1561
     45  C         23.9770   -4.1410    9.5860 C.2   107  LEU107      0.2260
     46  O         23.7550   -3.1520   10.2800 O.2   107  LEU107     -0.2867
     47  CB        23.6220   -6.4560   10.4260 C.3   107  LEU107      0.0270
     48  CG        24.0570   -6.0920   11.8560 C.3   107  LEU107      0.0019
     49  CD1       22.8640   -5.6200   12.6750 C.3   107  LEU107      0.0001
     50  CD2       24.6930   -7.2950   12.5190 C.3   107  LEU107      0.0001
     51  N         22.9110   -0.4080    8.6500 N.3   110  ALA110     -0.1231
     52  CA        22.3210    0.4030    9.7130 C.3   110  ALA110      0.1694
     53  C         23.3840    1.2740   10.3880 C.2   110  ALA110      0.2591
     54  O         23.0610    2.2020   11.1340 O.2   110  ALA110     -0.2718
     55  CB        21.6290   -0.5120   10.7630 C.3   110  ALA110      0.0304
     56  N         24.6530    0.9730   10.1290 N.am  111  LEU111     -0.1980
     57  CA        25.7510    1.7360   10.7140 C.3   111  LEU111      0.1596
     58  C         26.4420    2.6630    9.6990 C.2   111  LEU111      0.2287
     59  O         26.8010    3.7920   10.0210 O.2   111  LEU111     -0.2864
     60  CB        26.7890    0.7770   11.3230 C.3   111  LEU111      0.0297
     61  CG        26.2610   -0.1740   12.4080 C.3   111  LEU111      0.0022
     62  CD1       27.3080   -1.2420   12.7430 C.3   111  LEU111      0.0001
     63  CD2       25.8940    0.6330   13.6560 C.3   111  LEU111      0.0001
     64  N         17.8010    4.1820    9.5230 N.3   139  ILE139     -0.1245
     65  CA        18.1230    3.0510   10.3870 C.3   139  ILE139      0.1561
     66  C         16.9320    2.0950   10.4160 C.2   139  ILE139      0.2260
     67  O         17.1010    0.8800   10.3430 O.2   139  ILE139     -0.2867
     68  CB        18.4620    3.5290   11.8250 C.3   139  ILE139      0.0252
     69  CG1       19.7920    4.2860   11.8080 C.3   139  ILE139      0.0019
     70  CG2       18.5360    2.3390   12.7820 C.3   139  ILE139      0.0019
     71  CD1       20.2000    4.8530   13.1520 C.3   139  ILE139      0.0001
     72  N         16.9640   -1.9280    9.4020 N.3   143  VAL143     -0.1231
     73  CA        16.5830   -2.9510   10.3720 C.3   143  VAL143      0.1692
     74  C         15.3900   -3.7870    9.9330 C.2   143  VAL143      0.2592
     75  O         15.3760   -5.0010   10.1370 O.2   143  VAL143     -0.2718
     76  CB        16.2920   -2.3260   11.7680 C.3   143  VAL143      0.0266
     77  CG1       15.9020   -3.4250   12.7670 C.3   143  VAL143      0.0020
     78  CG2       17.5410   -1.5820   12.2770 C.3   143  VAL143      0.0020
     79  N         14.3840   -3.1570    9.3330 N.am  144  THR144     -0.1953
     80  CA        13.2230   -3.9170    8.8880 C.3   144  THR144      0.1897
     81  C         13.6150   -4.7840    7.6880 C.2   144  THR144      0.2313
     82  O         13.0390   -5.8480    7.4600 O.2   144  THR144     -0.2863
     83  CB        12.0120   -2.9840    8.5630 C.3   144  THR144      0.1794
     84  OG1       12.4120   -1.9290    7.6750 O.3   144  THR144     -0.2208
     85  CG2       11.4650   -2.3750    9.8570 C.3   144  THR144      0.0378
     86  N         16.5430   -6.1880    7.4360 N.3   146  LEU146     -0.1231
     87  CA        17.2680   -7.2960    8.0550 C.3   146  LEU146      0.1693
     88  C         16.2150   -8.2880    8.5420 C.2   146  LEU146      0.2591
     89  O         16.3160   -9.4910    8.3030 O.2   146  LEU146     -0.2718
     90  CB        18.1120   -6.7990    9.2380 C.3   146  LEU146      0.0284
     91  CG        18.7760   -7.8570   10.1410 C.3   146  LEU146      0.0019
     92  CD1       19.6620   -8.7660    9.3140 C.3   146  LEU146      0.0001
     93  CD2       19.5940   -7.1790   11.2430 C.3   146  LEU146      0.0001
     94  N         15.2000   -7.7630    9.2180 N.am  147  ALA147     -0.1980
     95  CA        14.1040   -8.5750    9.7330 C.3   147  ALA147      0.1597
     96  C         13.4520   -9.3990    8.6190 C.2   147  ALA147      0.2287
     97  O         13.1610  -10.5800    8.7990 O.2   147  ALA147     -0.2864
     98  CB        13.0640   -7.6690   10.3990 C.3   147  ALA147      0.0319
     99  N         15.5870  -12.2720    7.6620 N.3   150  LEU150     -0.1245
    100  CA        15.6510  -13.2700    8.7250 C.3   150  LEU150      0.1561
    101  C         14.3480  -14.0230    8.9980 C.2   150  LEU150      0.2260
    102  O         14.3480  -15.0190    9.7170 O.2   150  LEU150     -0.2867
    103  CB        16.1460  -12.6070   10.0140 C.3   150  LEU150      0.0270
    104  CG        17.6650  -12.5660   10.2300 C.3   150  LEU150      0.0019
    105  CD1       18.3810  -12.1350    8.9740 C.3   150  LEU150      0.0001
    106  CD2       17.9780  -11.6220   11.3780 C.3   150  LEU150      0.0001
    107  N          7.5560   -6.8900    5.6450 N.3   161  TRP161     -0.1241
    108  CA         8.6300   -6.1320    6.2790 C.3   161  TRP161      0.1605
    109  C          9.3170   -5.3160    5.1920 C.2   161  TRP161      0.2264
    110  O          9.7420   -4.1870    5.4180 O.2   161  TRP161     -0.2867
    111  CB         9.6340   -7.0690    6.9570 C.3   161  TRP161      0.0550
    112  CG         9.6710   -6.8840    8.4530 C.ar  161  TRP161      0.0003
    113  CD1        9.8050   -5.7040    9.1340 C.ar  161  TRP161      0.0946
    114  CD2        9.5740   -7.9060    9.4440 C.ar  161  TRP161      0.0152
    115  NE1        9.7970   -5.9300   10.4910 N.ar  161  TRP161     -0.2442
    116  CE2        9.6560   -7.2740   10.7090 C.ar  161  TRP161      0.0810
    117  CE3        9.4260   -9.2960    9.3880 C.ar  161  TRP161      0.0012
    118  CZ2        9.5950   -7.9860   11.9050 C.ar  161  TRP161      0.0191
    119  CZ3        9.3650  -10.0020   10.5750 C.ar  161  TRP161      0.0001
    120  CH2        9.4490   -9.3460   11.8180 C.ar  161  TRP161      0.0015
@<TRIPOS>BOND
     1    24    23    2
     2    20    18    1
     3    23    22    1
     4   109   110    2
     5   109   108    1
     6    11    10    2
     7    18    15    1
     8    18    19    1
     9    21    22    1
    10    21    16   am
    11   107   108    1
    12    29    30    1
    13    15    16    1
    14    15    14    1
    15    22    25    1
    16   108   111    1
    17    16    17    2
    18    25    26    1
    19    30    31    1
    20    30    33    1
    21    10    14   am
    22    10     9    1
    23   111   112    1
    24    31    32    2
    25     8     9    1
    26    26    27    1
    27    26    28    1
    28    86    87    1
    29     7     5    1
    30    82    81    2
    31    99   100    1
    32    84    83    1
    33    81    80    1
    34     9    12    1
    35    33    34    1
    36     6     5    1
    37    87    88    1
    38    87    90    1
    39    43    44    1
    40    89    88    2
    41     5     2    1
    42    35    34   ar
    43    35    37   ar
    44   112   113   ar
    45   112   114   ar
    46    88    94   am
    47    83    80    1
    48    83    85    1
    49    34    36   ar
    50    96    97    2
    51    96    95    1
    52    51    52    1
    53    12    13    1
    54   100   101    1
    55   100   103    1
    56    80    79    1
    57   105   104    1
    58   101   102    2
    59   113   115   ar
    60    94    95    1
    61    90    91    1
    62    92    91    1
    63    79    74   am
    64   117   114   ar
    65   117   119   ar
    66    72    73    1
    67   114   116   ar
    68    37    38   ar
    69    64    65    1
    70    45    44    1
    71    45    46    2
    72    44    47    1
    73     2     1    1
    74     2     3    1
    75    58    59    2
    76    58    57    1
    77    52    53    1
    78    52    55    1
    79    95    98    1
    80    36    38   ar
    81    36    39   ar
    82    74    75    2
    83    74    73    1
    84   103   104    1
    85    56    53   am
    86    56    57    1
    87    91    93    1
    88   104   106    1
    89    38    40   ar
    90    67    66    2
    91    73    76    1
    92    65    66    1
    93    65    68    1
    94    53    54    2
    95    39    41   ar
    96    47    48    1
    97     3     4    2
    98   115   116   ar
    99   119   120   ar
   100   116   118   ar
   101    57    60    1
   102    60    61    1
   103    40    42   ar
   104    41    42   ar
   105    76    78    1
   106    76    77    1
   107    69    68    1
   108    69    71    1
   109   120   118   ar
   110    68    70    1
   111    48    50    1
   112    48    49    1
   113    61    62    1
   114    61    63    1
