@<TRIPOS>MOLECULE
tmp/3a7kB07.pdb
 130 122 0 0 0
SMALL
GASTEIGER

@<TRIPOS>ATOM
      1  N         16.6800   18.8350   12.9650 N.3   129  THR129     -0.1203
      2  CA        15.4210   18.1340   12.7310 C.3   129  THR129      0.1994
      3  C         15.4400   17.2140   11.5170 C.2   129  THR129      0.2617
      4  O         14.9720   16.0780   11.5800 O.2   129  THR129     -0.2717
      5  CB        14.2710   19.1340   12.5600 C.3   129  THR129      0.1784
      6  OG1       14.2310   20.0010   13.7020 O.3   129  THR129     -0.2211
      7  CG2       12.9390   18.4020   12.4310 C.3   129  THR129      0.0376
      8  N         15.9770   17.7150   10.4110 N.am  130  LYS130     -0.1979
      9  CA        16.0350   16.9400    9.1800 C.3   130  LYS130      0.1596
     10  C         17.0750   15.8220    9.2510 C.2   130  LYS130      0.2287
     11  O         16.8530   14.7290    8.7220 O.2   130  LYS130     -0.2864
     12  CB        16.3110   17.8730    8.0000 C.3   130  LYS130      0.0298
     13  CG        15.1430   18.8040    7.7070 C.3   130  LYS130      0.0038
     14  CD        15.4690   19.7920    6.6090 C.3   130  LYS130      0.0206
     15  CE        14.3590   20.8260    6.4820 C.3   130  LYS130      0.1093
     16  NZ        14.7320   21.9700    5.6130 N.3   130  LYS130     -0.1314
     17  N         15.5370   13.0630   11.2730 N.3   133  THR133     -0.1218
     18  CA        14.5010   12.3640   10.5150 C.3   133  THR133      0.1862
     19  C         15.1400   11.4140    9.4890 C.2   133  THR133      0.2287
     20  O         14.8180   10.2270    9.4380 O.2   133  THR133     -0.2866
     21  CB        13.5870   13.3790    9.7780 C.3   133  THR133      0.1770
     22  OG1       13.0810   14.3330   10.7210 O.3   133  THR133     -0.2211
     23  CG2       12.4060   12.6710    9.1070 C.3   133  THR133      0.0375
     24  N         14.8310    7.2210   10.2170 N.3   137  PHE137     -0.1241
     25  CA        14.0780    6.4220    9.2620 C.3   137  PHE137      0.1605
     26  C         14.9980    5.5710    8.3980 C.2   137  PHE137      0.2264
     27  O         14.6060    4.5010    7.9270 O.2   137  PHE137     -0.2867
     28  CB        13.1690    7.3200    8.4180 C.3   137  PHE137      0.0534
     29  CG        11.8930    7.6820    9.1240 C.ar  137  PHE137     -0.0203
     30  CD1       10.8710    6.7420    9.2510 C.ar  137  PHE137     -0.0042
     31  CD2       11.7600    8.9140    9.7640 C.ar  137  PHE137     -0.0042
     32  CE1        9.7370    7.0170   10.0140 C.ar  137  PHE137     -0.0003
     33  CE2       10.6320    9.2030   10.5320 C.ar  137  PHE137     -0.0003
     34  CZ         9.6170    8.2510   10.6590 C.ar  137  PHE137     -0.0000
     35  N          6.9720  -17.1100    7.2010 N.3   154  SER154     -0.1217
     36  CA         5.9830  -16.7500    6.1970 C.3   154  SER154      0.1889
     37  C          6.5530  -15.9450    5.0340 C.2   154  SER154      0.2288
     38  O          7.3560  -15.0270    5.2280 O.2   154  SER154     -0.2866
     39  CB         4.8550  -15.9610    6.8640 C.3   154  SER154      0.2089
     40  OG         4.0600  -15.2980    5.9050 O.3   154  SER154     -0.2183
     41  N          4.7160  -14.1160    3.0860 N.3   156  LEU156     -0.1231
     42  CA         4.0200  -12.8360    3.1140 C.3   156  LEU156      0.1693
     43  C          4.6270  -11.8780    4.1320 C.2   156  LEU156      0.2591
     44  O          4.8070  -10.6960    3.8400 O.2   156  LEU156     -0.2718
     45  CB         2.5300  -13.0450    3.4090 C.3   156  LEU156      0.0284
     46  CG         1.5440  -12.6520    2.2960 C.3   156  LEU156      0.0019
     47  CD1        1.6650  -11.1640    2.0020 C.3   156  LEU156      0.0001
     48  CD2        1.8220  -13.4580    1.0350 C.3   156  LEU156      0.0001
     49  N          4.9340  -12.3800    5.3280 N.am  157  MET157     -0.1979
     50  CA         5.5420  -11.5430    6.3610 C.3   157  MET157      0.1605
     51  C          6.8280  -10.9340    5.8100 C.2   157  MET157      0.2287
     52  O          7.1140   -9.7590    6.0380 O.2   157  MET157     -0.2864
     53  CB         5.8650  -12.3660    7.6150 C.3   157  MET157      0.0413
     54  CG         4.6560  -12.7340    8.4630 C.3   157  MET157      0.0598
     55  SD         3.8980  -11.3290    9.3170 S.3   157  MET157     -0.1393
     56  CE         3.0110  -12.1850   10.6240 C.3   157  MET157      0.0692
     57  N          6.1090   -8.1650    3.6930 N.3   160  PHE160     -0.1241
     58  CA         5.4330   -7.1330    4.4750 C.3   160  PHE160      0.1605
     59  C          6.4960   -6.2570    5.1460 C.2   160  PHE160      0.2264
     60  O          6.3590   -5.0290    5.2160 O.2   160  PHE160     -0.2867
     61  CB         4.5240   -7.7620    5.5360 C.3   160  PHE160      0.0534
     62  CG         3.8950   -6.7570    6.4660 C.ar  160  PHE160     -0.0203
     63  CD1        3.2190   -5.6500    5.9630 C.ar  160  PHE160     -0.0042
     64  CD2        3.9810   -6.9150    7.8440 C.ar  160  PHE160     -0.0042
     65  CE1        2.6400   -4.7160    6.8180 C.ar  160  PHE160     -0.0003
     66  CE2        3.4030   -5.9830    8.7070 C.ar  160  PHE160     -0.0003
     67  CZ         2.7330   -4.8830    8.1910 C.ar  160  PHE160     -0.0000
     68  N          7.3820   -2.1630    4.7950 N.3   164  ILE164     -0.1245
     69  CA         7.6410   -1.2230    5.8810 C.3   164  ILE164      0.1561
     70  C          8.9580   -0.4970    5.6030 C.2   164  ILE164      0.2260
     71  O          9.0670    0.7200    5.7840 O.2   164  ILE164     -0.2867
     72  CB         7.7820   -1.9490    7.2300 C.3   164  ILE164      0.0252
     73  CG1        6.4640   -2.6300    7.6170 C.3   164  ILE164      0.0019
     74  CG2        8.2220   -0.9630    8.2930 C.3   164  ILE164      0.0019
     75  CD1        5.3500   -1.6750    7.9980 C.3   164  ILE164      0.0001
     76  N          8.7000    2.0730    2.9350 N.3   167  ALA167     -0.1231
     77  CA         8.0530    3.2770    3.4530 C.3   167  ALA167      0.1694
     78  C          9.0790    4.1830    4.1370 C.2   167  ALA167      0.2592
     79  O          9.0700    5.3990    3.9450 O.2   167  ALA167     -0.2718
     80  CB         6.9470    2.8990    4.4330 C.3   167  ALA167      0.0304
     81  N          9.9660    3.5900    4.9340 N.am  168  CYS168     -0.1970
     82  CA        10.9890    4.3590    5.6280 C.3   168  CYS168      0.1712
     83  C         11.9450    4.9810    4.6080 C.2   168  CYS168      0.2296
     84  O         12.4500    6.0880    4.7970 O.2   168  CYS168     -0.2864
     85  CB        11.7760    3.4500    6.5860 C.3   168  CYS168      0.0983
     86  SG        10.8110    2.7450    7.9450 S.3   168  CYS168     -0.0798
     87  N         11.2450    5.9800    1.4440 N.3   170  ILE170     -0.1231
     88  CA        10.7030    7.1560    0.7630 C.3   170  ILE170      0.1692
     89  C         10.9280    8.4210    1.6010 C.2   170  ILE170      0.2591
     90  O         11.1070    9.5080    1.0510 O.2   170  ILE170     -0.2718
     91  CB         9.1770    7.0300    0.4430 C.3   170  ILE170      0.0266
     92  CG1        8.3590    7.0760    1.7300 C.3   170  ILE170      0.0019
     93  CG2        8.9050    5.7510   -0.3390 C.3   170  ILE170      0.0020
     94  CD1        6.8970    7.4190    1.5110 C.3   170  ILE170      0.0001
     95  N         10.9120    8.2780    2.9260 N.am  171  VAL171     -0.1980
     96  CA        11.1490    9.4140    3.8220 C.3   171  VAL171      0.1595
     97  C         12.5530    9.9550    3.5690 C.2   171  VAL171      0.2287
     98  O         12.7510   11.1600    3.3720 O.2   171  VAL171     -0.2864
     99  CB        11.0490    8.9990    5.3090 C.3   171  VAL171      0.0276
    100  CG1       11.5150   10.1390    6.2020 C.3   171  VAL171      0.0022
    101  CG2        9.6040    8.6320    5.6520 C.3   171  VAL171      0.0022
    102  N         12.7560   11.5940    0.2590 N.3   174  TYR174     -0.1227
    103  CA        12.0970   12.8940    0.2660 C.3   174  TYR174      0.1736
    104  C         12.9900   14.0160    0.7790 C.2   174  TYR174      0.2595
    105  O         13.0940   15.0700    0.1440 O.2   174  TYR174     -0.2718
    106  CB        10.8130   12.8410    1.0980 C.3   174  TYR174      0.0548
    107  CG        10.0830   14.1630    1.1320 C.ar  174  TYR174     -0.0200
    108  CD1       10.3850   15.1230    2.0970 C.ar  174  TYR174     -0.0009
    109  CD2        9.1380   14.4850    0.1550 C.ar  174  TYR174     -0.0009
    110  CE1        9.7710   16.3730    2.0880 C.ar  174  TYR174      0.0417
    111  CE2        8.5170   15.7360    0.1370 C.ar  174  TYR174      0.0417
    112  CZ         8.8420   16.6730    1.1060 C.ar  174  TYR174      0.1957
    113  OH         8.2520   17.9140    1.0850 O.3   174  TYR174     -0.2866
    114  N         13.6390   13.8040    1.9220 N.am  175  ILE175     -0.1980
    115  CA        14.5020   14.8450    2.4590 C.3   175  ILE175      0.1595
    116  C         15.7290   15.0490    1.5690 C.2   175  ILE175      0.2287
    117  O         16.2300   16.1640    1.4520 O.2   175  ILE175     -0.2864
    118  CB        14.9330   14.5520    3.9320 C.3   175  ILE175      0.0276
    119  CG1       16.0080   13.4830    3.9710 C.3   175  ILE175      0.0022
    120  CG2       13.7300   14.1250    4.7700 C.3   175  ILE175      0.0022
    121  CD1       17.3820   14.0570    3.9430 C.3   175  ILE175      0.0001
    122  N         14.0030   18.5240    0.6290 N.3   179  GLU179     -0.1245
    123  CA        14.5940   19.3150    1.7040 C.3   179  GLU179      0.1567
    124  C         16.0380   19.7740    1.5190 C.2   179  GLU179      0.2260
    125  O         16.3020   20.9720    1.4270 O.2   179  GLU179     -0.2867
    126  CB        14.4860   18.5500    3.0250 C.3   179  GLU179      0.0388
    127  CG        13.1450   17.8590    3.2480 C.3   179  GLU179      0.1160
    128  CD        12.0090   18.8230    3.5190 C.2   179  GLU179      0.3649
    129  OE1       11.9020   19.8400    2.8010 O.co2 179  GLU179     -0.2457
    130  OE2       11.2120   18.5530    4.4460 O.co2 179  GLU179     -0.2457
@<TRIPOS>BOND
     1    93    91    1
     2   111   109   ar
     3   111   112   ar
     4   105   104    2
     5   109   107   ar
     6   102   103    1
     7   103   104    1
     8   103   106    1
     9    91    88    1
    10    91    92    1
    11   122   123    1
    12    88    87    1
    13    88    89    1
    14   104   114   am
    15    48    46    1
    16    90    89    2
    17   113   112    1
    18   106   107    1
    19   112   110   ar
    20   107   108   ar
    21   125   124    2
    22   117   116    2
    23    94    92    1
    24   124   123    1
    25   116   115    1
    26    89    95   am
    27   123   126    1
    28   114   115    1
    29    47    46    1
    30   110   108   ar
    31    46    45    1
    32   115   118    1
    33   129   128   ar
    34    95    96    1
    35    76    77    1
    36   126   127    1
    37    41    42    1
    38    42    45    1
    39    42    43    1
    40   127   128    1
    41    98    97    2
    42    77    78    1
    43    77    80    1
    44   128   130   ar
    45    97    96    1
    46    57    58    1
    47    96    99    1
    48    44    43    2
    49   118   119    1
    50   118   120    1
    51   121   119    1
    52    79    78    2
    53    43    49   am
    54    78    81   am
    55    58    59    1
    56    58    61    1
    57    83    84    2
    58    83    82    1
    59    68    69    1
    60    81    82    1
    61    37    38    2
    62    37    36    1
    63    59    60    2
    64    99   101    1
    65    99   100    1
    66    49    50    1
    67    61    62    1
    68    70    71    2
    69    70    69    1
    70    16    15    1
    71    82    85    1
    72    51    52    2
    73    51    50    1
    74    69    72    1
    75    40    39    1
    76    63    62   ar
    77    63    65   ar
    78    36    39    1
    79    36    35    1
    80    50    53    1
    81    62    64   ar
    82    15    14    1
    83    85    86    1
    84    14    13    1
    85    65    67   ar
    86    72    73    1
    87    72    74    1
    88    53    54    1
    89    73    75    1
    90    13    12    1
    91    64    66   ar
    92    27    26    2
    93    12     9    1
    94    67    66   ar
    95    26    25    1
    96    28    29    1
    97    28    25    1
    98    54    55    1
    99    11    10    2
   100    23    21    1
   101    29    30   ar
   102    29    31   ar
   103     9    10    1
   104     9     8    1
   105    30    32   ar
   106    25    24    1
   107    55    56    1
   108    20    19    2
   109    19    18    1
   110    31    33   ar
   111    21    18    1
   112    21    22    1
   113    32    34   ar
   114     8     3   am
   115    18    17    1
   116    33    34   ar
   117     3     4    2
   118     3     2    1
   119     7     5    1
   120     5     2    1
   121     5     6    1
   122     2     1    1
