@<TRIPOS>MOLECULE
tmp/3a7kB02.pdb
 164 151 0 0 0
SMALL
GASTEIGER

@<TRIPOS>ATOM
      1  N         35.0500  -19.0940   -0.1200 N.3    11  LEU11      -0.1231
      2  CA        36.2250  -19.4500   -0.8920 C.3    11  LEU11       0.1693
      3  C         35.5850  -20.6150   -1.6650 C.2    11  LEU11       0.2592
      4  O         34.4480  -20.9900   -1.3600 O.2    11  LEU11      -0.2718
      5  CB        37.3510  -19.9390    0.0290 C.3    11  LEU11       0.0284
      6  CG        37.8970  -18.9640    1.0800 C.3    11  LEU11       0.0019
      7  CD1       38.8650  -19.6900    2.0030 C.3    11  LEU11       0.0001
      8  CD2       38.5880  -17.7860    0.4000 C.3    11  LEU11       0.0001
      9  N         36.2530  -21.1800   -2.6570 N.am   12  ASN12      -0.1974
     10  CA        35.6520  -22.2900   -3.4210 C.3    12  ASN12       0.1688
     11  C         34.6820  -21.7810   -4.4900 C.2    12  ASN12       0.2292
     12  O         34.4550  -22.4560   -5.4940 O.2    12  ASN12      -0.2864
     13  CB        34.9010  -23.2740   -2.5050 C.3    12  ASN12       0.1181
     14  CG        35.8110  -23.9720   -1.5120 C.2    12  ASN12       0.2629
     15  OD1       37.0180  -23.7160   -1.4640 O.2    12  ASN12      -0.2716
     16  ND2       35.2310  -24.8620   -0.7020 N.am   12  ASN12      -0.0877
     17  N         34.6090  -18.7030   -6.7340 N.3    14  PRO14      -0.2116
     18  CA        35.3180  -17.5490   -7.3080 C.3    14  PRO14       0.1372
     19  C         34.5030  -16.2560   -7.4030 C.2    14  PRO14       0.2244
     20  O         34.9940  -15.1800   -7.0590 O.2    14  PRO14      -0.2868
     21  CB        35.7430  -18.0590   -8.6840 C.3    14  PRO14       0.0268
     22  CG        35.9600  -19.5190   -8.4430 C.3    14  PRO14       0.0207
     23  CD        34.7590  -19.8870   -7.6020 C.3    14  PRO14       0.0892
     24  N         33.5280  -15.2350   -3.7440 N.3    17  ALA17      -0.1231
     25  CA        34.7680  -14.8730   -3.0730 C.3    17  ALA17       0.1694
     26  C         35.3090  -13.5270   -3.5530 C.2    17  ALA17       0.2592
     27  O         35.6980  -12.6890   -2.7420 O.2    17  ALA17      -0.2718
     28  CB        35.8140  -15.9520   -3.2940 C.3    17  ALA17       0.0304
     29  N         35.3420  -13.3190   -4.8680 N.am   18  SER18      -0.1952
     30  CA        35.8590  -12.0660   -5.4080 C.3    18  SER18       0.1924
     31  C         35.0190  -10.8540   -4.9980 C.2    18  SER18       0.2314
     32  O         35.5570   -9.7920   -4.7260 O.2    18  SER18      -0.2863
     33  CB        35.9690  -12.1410   -6.9400 C.3    18  SER18       0.2116
     34  OG        34.7040  -12.3510   -7.5500 O.3    18  SER18      -0.2180
     35  N         36.2470  -10.2990   -1.0150 N.3    21  TYR21      -0.1241
     36  CA        37.6400   -9.9390   -0.7590 C.3    21  TYR21       0.1605
     37  C         38.1260   -8.6970   -1.5120 C.2    21  TYR21       0.2264
     38  O         39.0640   -8.0280   -1.0710 O.2    21  TYR21      -0.2867
     39  CB        38.5660  -11.1330   -1.0430 C.3    21  TYR21       0.0534
     40  CG        38.4500  -12.2430   -0.0080 C.ar   21  TYR21      -0.0201
     41  CD1       37.4950  -13.2520   -0.1370 C.ar   21  TYR21      -0.0009
     42  CD2       39.2570  -12.2440    1.1350 C.ar   21  TYR21      -0.0009
     43  CE1       37.3470  -14.2370    0.8480 C.ar   21  TYR21       0.0417
     44  CE2       39.1100  -13.2190    2.1260 C.ar   21  TYR21       0.0417
     45  CZ        38.1550  -14.2110    1.9750 C.ar   21  TYR21       0.1957
     46  OH        38.0020  -15.1690    2.9640 O.3    21  TYR21      -0.2866
     47  N         37.1680   -5.8070    0.6180 N.3    24  ILE24      -0.1231
     48  CA        37.8990   -5.7190    1.8690 C.3    24  ILE24       0.1692
     49  C         39.1400   -4.8960    1.5020 C.2    24  ILE24       0.2591
     50  O         39.5340   -3.9680    2.2200 O.2    24  ILE24      -0.2718
     51  CB        38.3490   -7.1030    2.4050 C.3    24  ILE24       0.0266
     52  CG1       37.1350   -7.8980    2.9010 C.3    24  ILE24       0.0019
     53  CG2       39.3440   -6.9100    3.5510 C.3    24  ILE24       0.0020
     54  CD1       37.4660   -9.2790    3.4280 C.3    24  ILE24       0.0001
     55  N         39.7350   -5.2430    0.3600 N.am   25  ALA25      -0.1980
     56  CA        40.9260   -4.5570   -0.1400 C.3    25  ALA25       0.1597
     57  C         40.6180   -3.1020   -0.5040 C.2    25  ALA25       0.2287
     58  O         41.3390   -2.1970   -0.1030 O.2    25  ALA25      -0.2864
     59  CB        41.4860   -5.2960   -1.3610 C.3    25  ALA25       0.0319
     60  N         39.6590   -0.9310    2.5510 N.3    28  GLY28      -0.1210
     61  CA        40.8690   -0.6600    3.3070 C.3    28  GLY28       0.1956
     62  C         41.7510    0.3900    2.6430 C.2    28  GLY28       0.2611
     63  O         42.3270    1.2580    3.3120 O.2    28  GLY28      -0.2717
     64  N         41.8840    0.2920    1.3260 N.am   29  LEU29      -0.1979
     65  CA        42.6790    1.2460    0.5650 C.3    29  LEU29       0.1596
     66  C         42.0070    2.6190    0.6060 C.2    29  LEU29       0.2287
     67  O         42.6790    3.6410    0.6300 O.2    29  LEU29      -0.2864
     68  CB        42.8200    0.7790   -0.8930 C.3    29  LEU29       0.0297
     69  CG        43.7170   -0.4440   -1.1220 C.3    29  LEU29       0.0022
     70  CD1       43.7110   -0.8280   -2.5940 C.3    29  LEU29       0.0001
     71  CD2       45.1330   -0.1300   -0.6530 C.3    29  LEU29       0.0001
     72  N         40.1290    3.9090    3.0800 N.3    31  ILE31      -0.1231
     73  CA        40.3630    4.5210    4.3760 C.3    31  ILE31       0.1692
     74  C         41.7320    5.1980    4.3960 C.2    31  ILE31       0.2591
     75  O         41.8710    6.3320    4.8630 O.2    31  ILE31      -0.2718
     76  CB        40.3340    3.4690    5.5080 C.3    31  ILE31       0.0266
     77  CG1       38.9670    2.7870    5.5420 C.3    31  ILE31       0.0019
     78  CG2       40.6640    4.1390    6.8480 C.3    31  ILE31       0.0020
     79  CD1       38.9530    1.4750    6.3450 C.3    31  ILE31       0.0001
     80  N         42.7440    4.4900    3.9070 N.am   32  LEU32      -0.1980
     81  CA        44.0930    5.0270    3.8940 C.3    32  LEU32       0.1596
     82  C         44.1860    6.2670    2.9870 C.2    32  LEU32       0.2287
     83  O         44.7970    7.2690    3.3630 O.2    32  LEU32      -0.2864
     84  CB        45.0840    3.9360    3.4520 C.3    32  LEU32       0.0297
     85  CG        45.2360    2.7400    4.4130 C.3    32  LEU32       0.0022
     86  CD1       46.1070    1.6580    3.7750 C.3    32  LEU32       0.0001
     87  CD2       45.8420    3.2100    5.7380 C.3    32  LEU32       0.0001
     88  N         42.2850    9.3000    4.5820 N.3    35  VAL35      -0.1245
     89  CA        42.9780    9.8810    5.7160 C.3    35  VAL35       0.1561
     90  C         44.1180   10.7490    5.1930 C.2    35  VAL35       0.2260
     91  O         44.3660   11.8360    5.7090 O.2    35  VAL35      -0.2867
     92  CB        43.5170    8.7770    6.6540 C.3    35  VAL35       0.0252
     93  CG1       44.5070    9.3540    7.6510 C.3    35  VAL35       0.0019
     94  CG2       42.3570    8.1450    7.3910 C.3    35  VAL35       0.0019
     95  N         42.6850   14.1340    3.6330 N.3    38  THR38      -0.1203
     96  CA        42.1870   15.1230    4.5820 C.3    38  THR38       0.1994
     97  C         43.1350   15.5020    5.7130 C.2    38  THR38       0.2617
     98  O         42.7410   16.1990    6.6390 O.2    38  THR38      -0.2717
     99  CB        40.8510   14.6470    5.1960 C.3    38  THR38       0.1784
    100  OG1       41.0240   13.3490    5.7830 O.3    38  THR38      -0.2211
    101  CG2       39.7730   14.5630    4.1250 C.3    38  THR38       0.0376
    102  N         44.3840   15.0590    5.6350 N.am   39  ARG39      -0.1979
    103  CA        45.3690   15.3580    6.6720 C.3    39  ARG39       0.1597
    104  C         45.5510   16.8590    6.8910 C.2    39  ARG39       0.2287
    105  O         45.9420   17.2890    7.9730 O.2    39  ARG39      -0.2864
    106  CB        46.7250   14.7600    6.2910 C.3    39  ARG39       0.0334
    107  CG        47.1960   15.2670    4.9490 C.3    39  ARG39       0.0492
    108  CD        48.5680   14.7750    4.5390 C.3    39  ARG39       0.2205
    109  NE        48.8020   15.1230    3.1390 N.pl3  39  ARG39      -0.0865
    110  CZ        49.9970   15.1960    2.5690 C.cat  39  ARG39       0.5346
    111  NH1       51.0890   14.9450    3.2780 N.pl3  39  ARG39       0.1354
    112  NH2       50.0990   15.5270    1.2920 N.pl3  39  ARG39       0.1354
    113  N         43.1300   19.2650    6.7160 N.3    41  LEU41      -0.1245
    114  CA        41.9620   19.9830    7.2380 C.3    41  LEU41       0.1561
    115  C         42.2240   20.6020    8.6040 C.2    41  LEU41       0.2260
    116  O         42.8700   19.9950    9.4610 O.2    41  LEU41      -0.2867
    117  CB        40.7460   19.0550    7.3420 C.3    41  LEU41       0.0270
    118  CG        40.1370   18.4550    6.0700 C.3    41  LEU41       0.0019
    119  CD1       38.9040   17.6300    6.4470 C.3    41  LEU41       0.0001
    120  CD2       39.7610   19.5700    5.0910 C.3    41  LEU41       0.0001
    121  N         36.1670   18.9190    9.4530 N.3    47  LYS47      -0.1245
    122  CA        36.7220   17.7000   10.0280 C.3    47  LYS47       0.1561
    123  C         35.6190   16.7390   10.4400 C.2    47  LYS47       0.2260
    124  O         35.7770   15.5250   10.3280 O.2    47  LYS47      -0.2867
    125  CB        37.6020   18.0350   11.2320 C.3    47  LYS47       0.0271
    126  CG        38.9580   18.5890   10.8530 C.3    47  LYS47       0.0035
    127  CD        39.8630   18.6840   12.0670 C.3    47  LYS47       0.0206
    128  CE        41.2990   18.9620   11.6580 C.3    47  LYS47       0.1093
    129  NZ        42.2220   19.0460   12.8270 N.3    47  LYS47      -0.1314
    130  N         34.4660   15.1020    7.3420 N.3    50  ALA50      -0.1231
    131  CA        35.4490   14.1260    6.8830 C.3    50  ALA50       0.1694
    132  C         35.4650   12.8380    7.7380 C.2    50  ALA50       0.2591
    133  O         35.5300   11.7400    7.1920 O.2    50  ALA50      -0.2718
    134  CB        36.8390   14.7550    6.8500 C.3    50  ALA50       0.0304
    135  N         35.3990   12.9660    9.0600 N.am   51  VAL51      -0.1980
    136  CA        35.3970   11.7820    9.9250 C.3    51  VAL51       0.1595
    137  C         34.1660   10.9180    9.6530 C.2    51  VAL51       0.2287
    138  O         34.2630    9.6980    9.5420 O.2    51  VAL51      -0.2864
    139  CB        35.4210   12.1600   11.4200 C.3    51  VAL51       0.0276
    140  CG1       35.2770   10.8960   12.2790 C.3    51  VAL51       0.0022
    141  CG2       36.7300   12.8550   11.7570 C.3    51  VAL51       0.0022
    142  N         34.7550    9.1150    6.4440 N.3    54  ILE54      -0.1245
    143  CA        35.7700    8.0910    6.5870 C.3    54  ILE54       0.1561
    144  C         35.2090    6.8680    7.3350 C.2    54  ILE54       0.2260
    145  O         35.6500    5.7420    7.1100 O.2    54  ILE54      -0.2867
    146  CB        37.0110    8.6820    7.2960 C.3    54  ILE54       0.0252
    147  CG1       37.7520    9.6080    6.3210 C.3    54  ILE54       0.0019
    148  CG2       37.9260    7.5810    7.8130 C.3    54  ILE54       0.0019
    149  CD1       38.8500   10.4440    6.9770 C.3    54  ILE54       0.0001
    150  N         35.0680    2.4590    6.8870 N.3    58  VAL58      -0.1245
    151  CA        35.5580    1.7650    8.0780 C.3    58  VAL58       0.1561
    152  C         34.5240    0.7030    8.4500 C.2    58  VAL58       0.2260
    153  O         34.8650   -0.4280    8.8030 O.2    58  VAL58      -0.2867
    154  CB        35.7570    2.7380    9.2940 C.3    58  VAL58       0.0252
    155  CG1       36.0320    1.9460   10.5650 C.3    58  VAL58       0.0019
    156  CG2       36.9380    3.6730    9.0420 C.3    58  VAL58       0.0019
    157  N         34.6370   -2.1330    5.6480 N.3    61  ILE61      -0.1245
    158  CA        35.6680   -3.1490    5.7050 C.3    61  ILE61       0.1561
    159  C         35.3440   -4.2020    6.7690 C.2    61  ILE61       0.2260
    160  O         35.5990   -5.3940    6.5690 O.2    61  ILE61      -0.2867
    161  CB        37.0830   -2.5410    5.9350 C.3    61  ILE61       0.0252
    162  CG1       38.1400   -3.6200    5.6460 C.3    61  ILE61       0.0019
    163  CG2       37.2230   -1.9870    7.3530 C.3    61  ILE61       0.0019
    164  CD1       39.5850   -3.1790    5.8380 C.3    61  ILE61       0.0001
@<TRIPOS>BOND
     1    21    22    1
     2    21    18    1
     3    22    23    1
     4    23    17    1
     5    34    33    1
     6    19    18    1
     7    19    20    2
     8    18    17    1
     9    33    30    1
    10    12    11    2
    11    30    31    1
    12    30    29    1
    13    31    32    2
    14    29    26   am
    15    11    10    1
    16    24    25    1
    17    26    25    1
    18    26    27    2
    19    10     9    1
    20    10    13    1
    21    28    25    1
    22     9     3   am
    23    70    69    1
    24    13    14    1
    25     3     4    2
    26     3     2    1
    27    37    38    2
    28    37    36    1
    29    14    15    2
    30    14    16   am
    31    59    56    1
    32    69    68    1
    33    69    71    1
    34    39    36    1
    35    39    40    1
    36    35    36    1
    37    68    65    1
    38     2     1    1
    39     2     5    1
    40    57    56    1
    41    57    58    2
    42    56    55    1
    43    41    40   ar
    44    41    43   ar
    45    40    42   ar
    46     5     6    1
    47    55    49   am
    48     8     6    1
    49    65    66    1
    50    65    64    1
    51    66    67    2
    52    47    48    1
    53    43    45   ar
    54     6     7    1
    55    42    44   ar
    56   112   110    1
    57    64    62   am
    58    49    48    1
    59    49    50    2
    60    48    51    1
    61    45    44   ar
    62    45    46    1
    63    51    52    1
    64    51    53    1
    65    60    61    1
    66   110   109    2
    67   110   111    1
    68    62    61    1
    69    62    63    2
    70    52    54    1
    71    82    83    2
    72    82    81    1
    73    72    73    1
    74   109   108    1
    75    84    81    1
    76    84    85    1
    77    95    96    1
    78    86    85    1
    79    81    80    1
    80    80    74   am
    81   101    99    1
    82    73    74    1
    83    73    76    1
    84    74    75    2
    85    85    87    1
    86   108   107    1
    87    96    99    1
    88    96    97    1
    89    88    89    1
    90   107   106    1
    91   120   118    1
    92    90    91    2
    93    90    89    1
    94    99   100    1
    95    76    77    1
    96    76    78    1
    97    77    79    1
    98   102    97   am
    99   102   103    1
   100   162   164    1
   101   162   161    1
   102   157   158    1
   103   158   161    1
   104   158   159    1
   105    97    98    2
   106    89    92    1
   107   161   163    1
   108   118   119    1
   109   118   117    1
   110   106   103    1
   111   147   149    1
   112   147   146    1
   113   142   143    1
   114   160   159    2
   115   143   146    1
   116   143   144    1
   117    92    94    1
   118    92    93    1
   119   103   104    1
   120   113   114    1
   121   134   131    1
   122   131   130    1
   123   131   132    1
   124   150   151    1
   125   104   105    2
   126   145   144    2
   127   133   132    2
   128   114   117    1
   129   114   115    1
   130   146   148    1
   131   132   135   am
   132   151   152    1
   133   151   154    1
   134   152   153    2
   135   115   116    2
   136   156   154    1
   137   135   136    1
   138   154   155    1
   139   121   122    1
   140   138   137    2
   141   137   136    1
   142   136   139    1
   143   122   123    1
   144   122   125    1
   145   124   123    2
   146   126   125    1
   147   126   127    1
   148   139   141    1
   149   139   140    1
   150   128   127    1
   151   128   129    1
