@<TRIPOS>MOLECULE
tmp/3a7kB08.pdb
 94 87 0 0 0
SMALL
GASTEIGER

@<TRIPOS>ATOM
      1  N         37.0590   22.5550   12.2510 N.3    44  PRO44      -0.2102
      2  CA        36.3450   21.4830   12.9510 C.3    44  PRO44       0.1504
      3  C         35.0600   20.9890   12.2740 C.2    44  PRO44       0.2575
      4  O         34.7350   19.8030   12.3590 O.2    44  PRO44      -0.2718
      5  CB        36.1030   22.0720   14.3520 C.3    44  PRO44       0.0282
      6  CG        36.2660   23.5690   14.1680 C.3    44  PRO44       0.0208
      7  CD        37.3700   23.6710   13.1640 C.3    44  PRO44       0.0893
      8  N         34.3250   21.8730   11.6010 N.am   45  ARG45      -0.1980
      9  CA        33.0990   21.4320   10.9370 C.3    45  ARG45       0.1597
     10  C         33.4610   20.5940    9.7100 C.2    45  ARG45       0.2287
     11  O         32.8070   19.5970    9.4120 O.2    45  ARG45      -0.2864
     12  CB        32.2370   22.6200   10.5180 C.3    45  ARG45       0.0334
     13  CG        30.8840   22.2000    9.9690 C.3    45  ARG45       0.0492
     14  CD        29.9210   23.3750    9.8820 C.3    45  ARG45       0.2205
     15  NE        28.5710   22.9390    9.5440 N.pl3  45  ARG45      -0.0865
     16  CZ        28.1710   22.5800    8.3320 C.cat  45  ARG45       0.5346
     17  NH1       29.0160   22.6070    7.3140 N.pl3  45  ARG45       0.1354
     18  NH2       26.9200   22.1840    8.1430 N.pl3  45  ARG45       0.1354
     19  N         34.5060   17.2880   10.9210 N.3    48  LEU48      -0.1245
     20  CA        33.3640   16.4710   11.3280 C.3    48  LEU48       0.1561
     21  C         32.8110   15.7740   10.0940 C.2    48  LEU48       0.2260
     22  O         32.4400   14.6040   10.1480 O.2    48  LEU48      -0.2867
     23  CB        32.2530   17.3390   11.9220 C.3    48  LEU48       0.0270
     24  CG        31.2630   16.7290   12.9210 C.3    48  LEU48       0.0019
     25  CD1       29.8840   17.2430   12.6010 C.3    48  LEU48       0.0001
     26  CD2       31.2800   15.2000   12.8870 C.3    48  LEU48       0.0001
     27  N         22.9110   -0.4080    8.6500 N.3   110  ALA110     -0.1231
     28  CA        22.3210    0.4030    9.7130 C.3   110  ALA110      0.1694
     29  C         23.3840    1.2740   10.3880 C.2   110  ALA110      0.2591
     30  O         23.0610    2.2020   11.1340 O.2   110  ALA110     -0.2718
     31  CB        21.6290   -0.5120   10.7630 C.3   110  ALA110      0.0304
     32  N         24.6530    0.9730   10.1290 N.am  111  LEU111     -0.1980
     33  CA        25.7510    1.7360   10.7140 C.3   111  LEU111      0.1596
     34  C         26.4420    2.6630    9.6990 C.2   111  LEU111      0.2287
     35  O         26.8010    3.7920   10.0210 O.2   111  LEU111     -0.2864
     36  CB        26.7890    0.7770   11.3230 C.3   111  LEU111      0.0297
     37  CG        26.2610   -0.1740   12.4080 C.3   111  LEU111      0.0022
     38  CD1       27.3080   -1.2420   12.7430 C.3   111  LEU111      0.0001
     39  CD2       25.8940    0.6330   13.6560 C.3   111  LEU111      0.0001
     40  N         23.8460    5.6470    7.9190 N.3   114  PRO114     -0.2102
     41  CA        23.5320    6.8390    8.7220 C.3   114  PRO114      0.1504
     42  C         24.7050    7.8160    8.6100 C.2   114  PRO114      0.2575
     43  O         24.5370    9.0270    8.6890 O.2   114  PRO114     -0.2718
     44  CB        23.4100    6.2850   10.1430 C.3   114  PRO114      0.0282
     45  CG        22.9250    4.9080    9.9300 C.3   114  PRO114      0.0208
     46  CD        23.7190    4.4240    8.7380 C.3   114  PRO114      0.0893
     47  N         25.9010    7.2650    8.4380 N.am  115  MET115     -0.1980
     48  CA        27.0960    8.0720    8.3180 C.3   115  MET115      0.1605
     49  C         27.1700    8.7780    6.9630 C.2   115  MET115      0.2287
     50  O         27.6900    9.8880    6.8690 O.2   115  MET115     -0.2864
     51  CB        28.3320    7.2100    8.5680 C.3   115  MET115      0.0413
     52  CG        28.4520    6.7360   10.0180 C.3   115  MET115      0.0598
     53  SD        28.5590    8.1150   11.2260 S.3   115  MET115     -0.1393
     54  CE        26.8980    8.3100   11.7370 C.3   115  MET115      0.0692
     55  N         24.6140   11.5800    7.3900 N.3   118  LEU118     -0.1245
     56  CA        25.0990   12.6260    8.2850 C.3   118  LEU118      0.1561
     57  C         26.0920   13.5200    7.5350 C.2   118  LEU118      0.2260
     58  O         26.0280   14.7460    7.6420 O.2   118  LEU118     -0.2867
     59  CB        25.7500   11.9890    9.5210 C.3   118  LEU118      0.0270
     60  CG        26.3450   12.8230   10.6620 C.3   118  LEU118      0.0019
     61  CD1       27.7480   13.2190   10.3050 C.3   118  LEU118      0.0001
     62  CD2       25.4820   14.0520   10.9620 C.3   118  LEU118      0.0001
     63  N         25.0850   17.4150    6.5850 N.3   122  LEU122     -0.1245
     64  CA        25.9650   18.4910    7.0280 C.3   122  LEU122      0.1561
     65  C         26.4950   19.2880    5.8390 C.2   122  LEU122      0.2260
     66  O         26.5550   20.5120    5.8880 O.2   122  LEU122     -0.2867
     67  CB        27.1390   17.9220    7.8290 C.3   122  LEU122      0.0270
     68  CG        26.7690   17.3230    9.1900 C.3   122  LEU122      0.0019
     69  CD1       27.9510   16.5680    9.7750 C.3   122  LEU122      0.0001
     70  CD2       26.3220   18.4470   10.1220 C.3   122  LEU122      0.0001
     71  N         18.1990   16.0980    9.9080 N.3   131  LEU131     -0.1245
     72  CA        19.2580   15.1050   10.0720 C.3   131  LEU131      0.1561
     73  C         18.7040   13.9440   10.8910 C.2   131  LEU131      0.2260
     74  O         18.9310   12.7730   10.5730 O.2   131  LEU131     -0.2867
     75  CB        20.4550   15.7030   10.8150 C.3   131  LEU131      0.0270
     76  CG        21.7510   16.0530   10.0780 C.3   131  LEU131      0.0019
     77  CD1       22.0560   15.0040    9.0110 C.3   131  LEU131      0.0001
     78  CD2       21.6310   17.4130    9.4680 C.3   131  LEU131      0.0001
     79  N         18.2200   10.1720    9.3150 N.3   135  ILE135     -0.1245
     80  CA        18.9540    9.1310   10.0120 C.3   135  ILE135      0.1561
     81  C         18.1060    8.0870   10.7330 C.2   135  ILE135      0.2260
     82  O         18.3720    6.8900   10.5920 O.2   135  ILE135     -0.2867
     83  CB        19.9860    9.7790   10.9710 C.3   135  ILE135      0.0252
     84  CG1       21.0480   10.4980   10.1230 C.3   135  ILE135      0.0019
     85  CG2       20.6500    8.7220   11.8610 C.3   135  ILE135      0.0019
     86  CD1       22.0890   11.2670   10.9140 C.3   135  ILE135      0.0001
     87  N         17.8010    4.1820    9.5230 N.3   139  ILE139     -0.1245
     88  CA        18.1230    3.0510   10.3870 C.3   139  ILE139      0.1561
     89  C         16.9320    2.0950   10.4160 C.2   139  ILE139      0.2260
     90  O         17.1010    0.8800   10.3430 O.2   139  ILE139     -0.2867
     91  CB        18.4620    3.5290   11.8250 C.3   139  ILE139      0.0252
     92  CG1       19.7920    4.2860   11.8080 C.3   139  ILE139      0.0019
     93  CG2       18.5360    2.3390   12.7820 C.3   139  ILE139      0.0019
     94  CD1       20.2000    4.8530   13.1520 C.3   139  ILE139      0.0001
@<TRIPOS>BOND
     1    65    66    2
     2    65    64    1
     3    63    64    1
     4    50    49    2
     5    49    48    1
     6    64    67    1
     7    17    16    1
     8    55    56    1
     9    57    58    2
    10    57    56    1
    11    67    68    1
    12    40    41    1
    13    40    46    1
    14    18    16    1
    15    56    59    1
    16    48    47    1
    17    48    51    1
    18    16    15    2
    19    47    42   am
    20    51    52    1
    21    42    43    2
    22    42    41    1
    23    27    28    1
    24    41    44    1
    25    46    45    1
    26    77    76    1
    27    68    69    1
    28    68    70    1
    29    79    80    1
    30    11    10    2
    31    78    76    1
    32    59    60    1
    33    87    88    1
    34    15    14    1
    35    34    35    2
    36    34    33    1
    37    10     9    1
    38    28    29    1
    39    28    31    1
    40    14    13    1
    41    71    72    1
    42    45    44    1
    43    13    12    1
    44    80    81    1
    45    80    83    1
    46    52    53    1
    47    72    75    1
    48    72    73    1
    49    76    75    1
    50    21    22    2
    51    21    20    1
    52    84    86    1
    53    84    83    1
    54    32    29   am
    55    32    33    1
    56    61    60    1
    57    90    89    2
    58    88    89    1
    59    88    91    1
    60    29    30    2
    61    12     9    1
    62    74    73    2
    63    82    81    2
    64    60    62    1
    65    33    36    1
    66    19    20    1
    67     9     8    1
    68    83    85    1
    69    53    54    1
    70    36    37    1
    71    20    23    1
    72     8     3   am
    73    92    91    1
    74    92    94    1
    75    91    93    1
    76    23    24    1
    77     1     2    1
    78     1     7    1
    79     3     4    2
    80     3     2    1
    81    37    38    1
    82    37    39    1
    83    25    24    1
    84    26    24    1
    85     2     5    1
    86     7     6    1
    87     6     5    1
