@<TRIPOS>MOLECULE
tmp/3a7kA00.pdb
 114 110 0 0 0
SMALL
GASTEIGER

@<TRIPOS>ATOM
      1  N         43.0930  -12.5390   13.6660 N.3   159  TRP159     -0.1241
      2  CA        44.1410  -11.5450   13.8690 C.3   159  TRP159      0.1605
      3  C         43.9850  -10.3230   12.9710 C.2   159  TRP159      0.2264
      4  O         44.5210   -9.2560   13.2750 O.2   159  TRP159     -0.2867
      5  CB        45.5310  -12.1740   13.6910 C.3   159  TRP159      0.0550
      6  CG        45.8670  -13.1250   14.8000 C.ar  159  TRP159      0.0003
      7  CD1       45.8860  -14.4930   14.7330 C.ar  159  TRP159      0.0946
      8  CD2       46.1790  -12.7870   16.1640 C.ar  159  TRP159      0.0152
      9  NE1       46.1890  -15.0250   15.9670 N.ar  159  TRP159     -0.2442
     10  CE2       46.3720  -14.0050   16.8630 C.ar  159  TRP159      0.0810
     11  CE3       46.3090  -11.5770   16.8640 C.ar  159  TRP159      0.0012
     12  CZ2       46.6900  -14.0470   18.2270 C.ar  159  TRP159      0.0191
     13  CZ3       46.6240  -11.6180   18.2230 C.ar  159  TRP159      0.0001
     14  CH2       46.8110  -12.8470   18.8880 C.ar  159  TRP159      0.0015
     15  N         41.6680   -8.1540   14.7650 N.3   162  TYR162     -0.1241
     16  CA        42.4430   -7.6270   15.8840 C.3   162  TYR162      0.1605
     17  C         43.2280   -6.4320   15.3500 C.2   162  TYR162      0.2264
     18  O         43.3460   -5.3950   16.0070 O.2   162  TYR162     -0.2867
     19  CB        43.3710   -8.7200   16.4260 C.3   162  TYR162      0.0534
     20  CG        44.2400   -8.3330   17.6090 C.ar  162  TYR162     -0.0201
     21  CD1       45.4430   -7.6470   17.4260 C.ar  162  TYR162     -0.0009
     22  CD2       43.8860   -8.7060   18.9130 C.ar  162  TYR162     -0.0009
     23  CE1       46.2750   -7.3490   18.5080 C.ar  162  TYR162      0.0417
     24  CE2       44.7070   -8.4100   20.0020 C.ar  162  TYR162      0.0417
     25  CZ        45.9020   -7.7380   19.7930 C.ar  162  TYR162      0.1957
     26  OH        46.7500   -7.5060   20.8550 O.3   162  TYR162     -0.2866
     27  N         42.9580   -2.6010   16.4180 N.3   166  CYS166     -0.1235
     28  CA        44.1350   -1.8330   16.8410 C.3   166  CYS166      0.1677
     29  C         44.2020   -0.4650   16.1540 C.2   166  CYS166      0.2270
     30  O         44.5770    0.5300   16.7840 O.2   166  CYS166     -0.2867
     31  CB        45.4390   -2.5960   16.5360 C.3   166  CYS166      0.0956
     32  SG        45.8490   -3.9020   17.6960 S.3   166  CYS166     -0.0801
     33  N         41.9930    1.7970   17.7840 N.3   169  PHE169     -0.1227
     34  CA        42.5800    2.1250   19.0720 C.3   169  PHE169      0.1736
     35  C         43.5790    3.2800   18.9450 C.2   169  PHE169      0.2595
     36  O         43.5860    4.1830   19.7830 O.2   169  PHE169     -0.2718
     37  CB        43.2660    0.8800   19.6570 C.3   169  PHE169      0.0547
     38  CG        43.7810    1.0470   21.0600 C.ar  169  PHE169     -0.0202
     39  CD1       43.1300    1.8760   21.9800 C.ar  169  PHE169     -0.0042
     40  CD2       44.8810    0.3140   21.4920 C.ar  169  PHE169     -0.0042
     41  CE1       43.5680    1.9620   23.3010 C.ar  169  PHE169     -0.0003
     42  CE2       45.3290    0.3900   22.8110 C.ar  169  PHE169     -0.0003
     43  CZ        44.6690    1.2180   23.7230 C.ar  169  PHE169     -0.0000
     44  N         44.4080    3.2790   17.9020 N.am  170  ILE170     -0.1980
     45  CA        45.3810    4.3620   17.7790 C.3   170  ILE170      0.1595
     46  C         44.7240    5.7300   17.5850 C.2   170  ILE170      0.2287
     47  O         45.2990    6.7450   17.9730 O.2   170  ILE170     -0.2864
     48  CB        46.4470    4.1010   16.6560 C.3   170  ILE170      0.0276
     49  CG1       45.8900    4.4630   15.2900 C.3   170  ILE170      0.0022
     50  CG2       46.9320    2.6550   16.7010 C.3   170  ILE170      0.0022
     51  CD1       46.1900    5.8850   14.8940 C.3   170  ILE170      0.0001
     52  N         43.8290    6.7630   21.0350 N.3   173  LEU173     -0.1231
     53  CA        45.0740    7.1110   21.7100 C.3   173  LEU173      0.1693
     54  C         45.6040    8.4630   21.2530 C.2   173  LEU173      0.2592
     55  O         46.0630    9.2740   22.0710 O.2   173  LEU173     -0.2718
     56  CB        46.1310    6.0280   21.4700 C.3   173  LEU173      0.0284
     57  CG        45.8780    4.7020   22.1950 C.3   173  LEU173      0.0019
     58  CD1       46.9120    3.6690   21.7640 C.3   173  LEU173      0.0001
     59  CD2       45.9370    4.9280   23.7040 C.3   173  LEU173      0.0001
     60  N         45.5410    8.7150   19.9490 N.am  174  TYR174     -0.1976
     61  CA        46.0200    9.9920   19.4140 C.3   174  TYR174      0.1639
     62  C         45.2060   11.1580   19.9820 C.2   174  TYR174      0.2290
     63  O         45.7690   12.1760   20.3810 O.2   174  TYR174     -0.2864
     64  CB        45.9510    9.9890   17.8790 C.3   174  TYR174      0.0560
     65  CG        46.4010   11.2890   17.2480 C.ar  174  TYR174     -0.0198
     66  CD1       45.5150   12.3500   17.0990 C.ar  174  TYR174     -0.0009
     67  CD2       47.7210   11.4720   16.8360 C.ar  174  TYR174     -0.0009
     68  CE1       45.9220   13.5630   16.5600 C.ar  174  TYR174      0.0417
     69  CE2       48.1420   12.6930   16.2920 C.ar  174  TYR174      0.0417
     70  CZ        47.2300   13.7310   16.1610 C.ar  174  TYR174      0.1957
     71  OH        47.6090   14.9470   15.6330 O.3   174  TYR174     -0.2866
     72  N         46.1410   11.4940   23.8090 N.3   177  LEU177     -0.1245
     73  CA        47.5170   11.9510   23.9920 C.3   177  LEU177      0.1561
     74  C         47.9530   13.2070   23.2470 C.2   177  LEU177      0.2260
     75  O         48.8880   13.8850   23.6710 O.2   177  LEU177     -0.2867
     76  CB        48.4740   10.8130   23.6290 C.3   177  LEU177      0.0270
     77  CG        48.5700    9.6050   24.5640 C.3   177  LEU177      0.0019
     78  CD1       49.2110    8.4370   23.8130 C.3   177  LEU177      0.0001
     79  CD2       49.3920    9.9690   25.8070 C.3   177  LEU177      0.0001
     80  N         46.0270   -0.0770   27.3750 N.3   205  LEU205     -0.1245
     81  CA        47.0330   -0.8370   26.6350 C.3   205  LEU205      0.1561
     82  C         47.0350   -2.2710   27.1670 C.2   205  LEU205      0.2260
     83  O         47.4130   -3.2120   26.4650 O.2   205  LEU205     -0.2867
     84  CB        48.4200   -0.1990   26.8100 C.3   205  LEU205      0.0270
     85  CG        48.6020    1.0930   25.9980 C.3   205  LEU205      0.0019
     86  CD1       49.9410    1.7510   26.3230 C.3   205  LEU205      0.0001
     87  CD2       48.5040    0.7700   24.5070 C.3   205  LEU205      0.0001
     88  N         44.4670   -5.2690   25.0380 N.3   208  PRO208     -0.2102
     89  CA        44.8780   -6.0910   23.8920 C.3   208  PRO208      0.1504
     90  C         46.0330   -7.0260   24.2520 C.2   208  PRO208      0.2575
     91  O         46.2090   -8.0630   23.6180 O.2   208  PRO208     -0.2718
     92  CB        45.2490   -5.0540   22.8160 C.3   208  PRO208      0.0282
     93  CG        45.6050   -3.8200   23.6060 C.3   208  PRO208      0.0208
     94  CD        44.5890   -3.8330   24.7370 C.3   208  PRO208      0.0893
     95  N         46.8210   -6.6610   25.2620 N.am  209  ILE209     -0.1980
     96  CA        47.9270   -7.5080   25.7020 C.3   209  ILE209      0.1595
     97  C         47.3190   -8.7820   26.3050 C.2   209  ILE209      0.2287
     98  O         47.7360   -9.9010   25.9850 O.2   209  ILE209     -0.2864
     99  CB        48.8070   -6.7930   26.7600 C.3   209  ILE209      0.0276
    100  CG1       49.5940   -5.6570   26.0990 C.3   209  ILE209      0.0022
    101  CG2       49.7580   -7.7920   27.4240 C.3   209  ILE209      0.0022
    102  CD1       50.2520   -4.7030   27.0860 C.3   209  ILE209      0.0001
    103  N         45.7090  -10.9780   23.5750 N.3   212  ALA212     -0.1245
    104  CA        46.7390  -11.7110   22.8580 C.3   212  ALA212      0.1562
    105  C         47.3340  -12.8500   23.6790 C.2   212  ALA212      0.2260
    106  O         47.6260  -13.9180   23.1380 O.2   212  ALA212     -0.2867
    107  CB        47.8310  -10.7510   22.4280 C.3   212  ALA212      0.0290
    108  N         47.0790  -16.3470   21.9530 N.3   218  VAL218     -0.1245
    109  CA        48.0650  -17.4220   21.9650 C.3   218  VAL218      0.1561
    110  C         47.7990  -18.4530   23.0690 C.2   218  VAL218      0.2260
    111  O         48.4560  -19.4910   23.1420 O.2   218  VAL218     -0.2867
    112  CB        49.4910  -16.8390   22.1040 C.3   218  VAL218      0.0252
    113  CG1       49.7480  -16.4160   23.5350 C.3   218  VAL218      0.0019
    114  CG2       50.5130  -17.8450   21.6340 C.3   218  VAL218      0.0019
@<TRIPOS>BOND
     1     3     4    2
     2     3     2    1
     3     1     2    1
     4     5     2    1
     5     5     6    1
     6     7     6   ar
     7     7     9   ar
     8    15    16    1
     9     6     8   ar
    10    51    49    1
    11    49    48    1
    12    17    16    1
    13    17    18    2
    14    71    70    1
    15    16    19    1
    16     9    10   ar
    17    29    30    2
    18    29    28    1
    19    70    69   ar
    20    70    68   ar
    21     8    10   ar
    22     8    11   ar
    23    69    67   ar
    24    27    28    1
    25    19    20    1
    26    31    28    1
    27    31    32    1
    28    68    66   ar
    29    48    50    1
    30    48    45    1
    31    67    65   ar
    32    10    12   ar
    33    11    13   ar
    34    66    65   ar
    35    65    64    1
    36    21    20   ar
    37    21    23   ar
    38    46    45    1
    39    46    47    2
    40    20    22   ar
    41    45    44    1
    42    33    34    1
    43    64    61    1
    44    44    35   am
    45    13    14   ar
    46    12    14   ar
    47    23    25   ar
    48    22    24   ar
    49    35    34    1
    50    35    36    2
    51    34    37    1
    52    61    60    1
    53    61    62    1
    54    37    38    1
    55    25    24   ar
    56    25    26    1
    57    60    54   am
    58    62    63    2
    59    52    53    1
    60    38    40   ar
    61    38    39   ar
    62    54    53    1
    63    54    55    2
    64    56    53    1
    65    56    57    1
    66    40    42   ar
    67   114   112    1
    68    58    57    1
    69   108   109    1
    70   109   112    1
    71   109   110    1
    72    39    41   ar
    73   112   113    1
    74    57    59    1
    75   107   104    1
    76    42    43   ar
    77    92    93    1
    78    92    89    1
    79   104   103    1
    80   104   105    1
    81   110   111    2
    82   106   105    2
    83    74    75    2
    84    74    73    1
    85    41    43   ar
    86    93    94    1
    87    91    90    2
    88    76    73    1
    89    76    77    1
    90    72    73    1
    91    78    77    1
    92    89    90    1
    93    89    88    1
    94    90    95   am
    95    87    85    1
    96    77    79    1
    97    94    88    1
    98    95    96    1
    99    96    97    1
   100    96    99    1
   101    98    97    2
   102    85    86    1
   103    85    84    1
   104   100    99    1
   105   100   102    1
   106    83    82    2
   107    81    84    1
   108    81    82    1
   109    81    80    1
   110    99   101    1
