@<TRIPOS>MOLECULE
tmp/3a7kB05.pdb
 116 110 0 0 0
SMALL
GASTEIGER

@<TRIPOS>ATOM
      1  N         24.8460  -25.7850   10.4420 N.3     1  VAL1       -0.1231
      2  CA        26.0190  -25.3620    9.6270 C.3     1  VAL1        0.1692
      3  C         27.0350  -24.6130   10.4780 C.2     1  VAL1        0.2593
      4  O         26.6830  -23.8800   11.4010 O.2     1  VAL1       -0.2718
      5  CB        25.5740  -24.4750    8.4440 C.3     1  VAL1        0.0266
      6  CG1       26.7830  -23.8670    7.7470 C.3     1  VAL1        0.0020
      7  CG2       24.7680  -25.3150    7.4600 C.3     1  VAL1        0.0020
      8  N         28.3040  -24.8110   10.1500 N.am    2  THR2       -0.1939
      9  CA        29.4140  -24.1920   10.8630 C.3     2  THR2        0.2028
     10  C         29.8650  -22.8850   10.2030 C.2     2  THR2        0.2642
     11  O         29.6550  -22.6780    9.0030 O.2     2  THR2       -0.2714
     12  CB        30.5840  -25.2080   10.9420 C.3     2  THR2        0.1808
     13  OG1       30.5550  -25.8560   12.2230 O.3     2  THR2       -0.2208
     14  CG2       31.9190  -24.5510   10.7120 C.3     2  THR2        0.0379
     15  N         30.4740  -22.0030   10.9930 N.am    3  GLN3       -0.1976
     16  CA        30.9660  -20.7280   10.4750 C.3     3  GLN3        0.1601
     17  C         32.0670  -21.0090    9.4470 C.2     3  GLN3        0.2287
     18  O         32.1440  -20.3480    8.4060 O.2     3  GLN3       -0.2864
     19  CB        31.5310  -19.8660   11.6190 C.3     3  GLN3        0.0394
     20  CG        31.7510  -18.3920   11.2580 C.3     3  GLN3        0.0908
     21  CD        32.4700  -17.6210   12.3590 C.2     3  GLN3        0.2608
     22  OE1       33.6830  -17.4190   12.3020 O.2     3  GLN3       -0.2717
     23  NE2       31.7260  -17.2070   13.3730 N.am    3  GLN3       -0.0878
     24  N         30.7510  -22.0090    6.0400 N.3     6  LEU6       -0.1245
     25  CA        30.2820  -20.8590    5.2730 C.3     6  LEU6        0.1561
     26  C         31.4880  -20.0850    4.7440 C.2     6  LEU6        0.2260
     27  O         31.4510  -19.5220    3.6440 O.2     6  LEU6       -0.2867
     28  CB        29.3860  -19.9800    6.1500 C.3     6  LEU6        0.0270
     29  CG        27.8700  -20.0420    5.8820 C.3     6  LEU6        0.0019
     30  CD1       27.5120  -21.2210    4.9930 C.3     6  LEU6        0.0001
     31  CD2       27.1210  -20.1040    7.2130 C.3     6  LEU6        0.0001
     32  N         34.7670   -3.7650    7.8870 N.3    62  ALA62      -0.1231
     33  CA        34.3920   -4.6950    8.9450 C.3    62  ALA62       0.1694
     34  C         33.2210   -5.5710    8.4590 C.2    62  ALA62       0.2592
     35  O         33.1800   -6.7680    8.7430 O.2    62  ALA62      -0.2718
     36  CB        34.0080   -3.9200   10.2220 C.3    62  ALA62       0.0304
     37  N         32.2810   -4.9680    7.7240 N.am   63  SER63      -0.1952
     38  CA        31.1080   -5.6730    7.1830 C.3    63  SER63       0.1924
     39  C         31.4960   -6.8280    6.2520 C.2    63  SER63       0.2314
     40  O         30.9320   -7.9290    6.3470 O.2    63  SER63      -0.2863
     41  CB        30.2200   -4.7060    6.3950 C.3    63  SER63       0.2116
     42  OG        29.0430   -5.3450    5.9120 O.3    63  SER63      -0.2180
     43  N         33.1640   -9.5410    8.0940 N.3    66  GLY66      -0.1225
     44  CA        32.1440  -10.3350    8.7630 C.3    66  GLY66       0.1811
     45  C         31.4980  -11.3260    7.8010 C.2    66  GLY66       0.2280
     46  O         31.1550  -12.4570    8.1770 O.2    66  GLY66      -0.2866
     47  N         32.4710  -15.6270    7.3830 N.3    70  GLY70      -0.1210
     48  CA        31.3290  -16.4770    7.6760 C.3    70  GLY70       0.1956
     49  C         30.5870  -16.0920    8.9450 C.2    70  GLY70       0.2612
     50  O         29.5310  -16.6500    9.2480 O.2    70  GLY70      -0.2717
     51  N         31.1410  -15.1390    9.6900 N.am   71  LEU71      -0.1965
     52  CA        30.5350  -14.6710   10.9300 C.3    71  LEU71       0.1728
     53  C         29.1120  -14.1640   10.7180 C.2    71  LEU71       0.2617
     54  O         28.2030  -14.5230   11.4750 O.2    71  LEU71      -0.2715
     55  CB        31.3970  -13.5590   11.5420 C.3    71  LEU71       0.0311
     56  CG        30.8890  -12.8610   12.8130 C.3    71  LEU71       0.0022
     57  CD1       30.8800  -13.8460   13.9760 C.3    71  LEU71       0.0001
     58  CD2       31.7770  -11.6560   13.1330 C.3    71  LEU71       0.0001
     59  N         28.9020  -13.3420    9.6900 N.am   72  THR72      -0.1937
     60  CA        27.5700  -12.8020    9.4490 C.3    72  THR72       0.2028
     61  C         26.7940  -13.3700    8.2660 C.2    72  THR72       0.2642
     62  O         26.0480  -12.6560    7.5940 O.2    72  THR72      -0.2714
     63  CB        27.6090  -11.2520    9.3590 C.3    72  THR72       0.1808
     64  OG1       28.4630  -10.8430    8.2860 O.3    72  THR72      -0.2208
     65  CG2       28.1370  -10.6640   10.6640 C.3    72  THR72       0.0379
     66  N         26.9720  -14.6660    8.0100 N.am   73  ILE73      -0.1963
     67  CA        26.2460  -15.3500    6.9420 C.3    73  ILE73       0.1727
     68  C         25.5960  -16.5630    7.5850 C.2    73  ILE73       0.2616
     69  O         26.2010  -17.2010    8.4470 O.2    73  ILE73      -0.2715
     70  CB        27.1750  -15.8690    5.8310 C.3    73  ILE73       0.0290
     71  CG1       27.8380  -14.6980    5.1080 C.3    73  ILE73       0.0022
     72  CG2       26.3760  -16.7240    4.8350 C.3    73  ILE73       0.0023
     73  CD1       28.9620  -15.1350    4.1830 C.3    73  ILE73       0.0001
     74  N         24.3660  -16.8700    7.1780 N.am   74  SER74      -0.1950
     75  CA        23.6490  -18.0300    7.7000 C.3    74  SER74       0.1924
     76  C         22.9720  -18.7770    6.5550 C.2    74  SER74       0.2314
     77  O         22.7970  -18.2330    5.4620 O.2    74  SER74      -0.2863
     78  CB        22.5750  -17.6050    8.7080 C.3    74  SER74       0.2116
     79  OG        23.1430  -17.0820    9.8910 O.3    74  SER74      -0.2180
     80  N         23.0120  -11.8270    5.7310 N.3   103  TRP103     -0.1241
     81  CA        22.4220  -10.7830    6.5540 C.3   103  TRP103      0.1605
     82  C         23.4390   -9.7800    7.0850 C.2   103  TRP103      0.2264
     83  O         23.0700   -8.6920    7.5170 O.2   103  TRP103     -0.2867
     84  CB        21.6180  -11.3890    7.7180 C.3   103  TRP103      0.0550
     85  CG        22.3610  -12.3670    8.5900 C.ar  103  TRP103      0.0003
     86  CD1       22.3950  -13.7290    8.4510 C.ar  103  TRP103      0.0946
     87  CD2       23.1570  -12.0620    9.7430 C.ar  103  TRP103      0.0152
     88  NE1       23.1560  -14.2880    9.4460 N.ar  103  TRP103     -0.2442
     89  CE2       23.6370  -13.2900   10.2550 C.ar  103  TRP103      0.0810
     90  CE3       23.5120  -10.8720   10.3940 C.ar  103  TRP103      0.0012
     91  CZ2       24.4540  -13.3640   11.3930 C.ar  103  TRP103      0.0191
     92  CZ3       24.3280  -10.9430   11.5280 C.ar  103  TRP103      0.0001
     93  CH2       24.7890  -12.1860   12.0150 C.ar  103  TRP103      0.0015
     94  N         22.7100   -5.7600    8.2450 N.3   107  LEU107     -0.1231
     95  CA        23.0110   -5.3170    9.5960 C.3   107  LEU107      0.1693
     96  C         23.9770   -4.1410    9.5860 C.2   107  LEU107      0.2592
     97  O         23.7550   -3.1520   10.2800 O.2   107  LEU107     -0.2718
     98  CB        23.6220   -6.4560   10.4260 C.3   107  LEU107      0.0284
     99  CG        24.0570   -6.0920   11.8560 C.3   107  LEU107      0.0019
    100  CD1       22.8640   -5.6200   12.6750 C.3   107  LEU107      0.0001
    101  CD2       24.6930   -7.2950   12.5190 C.3   107  LEU107      0.0001
    102  N         25.0510   -4.2270    8.8040 N.am  108  THR108     -0.1953
    103  CA        26.0020   -3.1210    8.8150 C.3   108  THR108      0.1897
    104  C         25.5020   -1.8650    8.0990 C.2   108  THR108      0.2313
    105  O         25.9970   -0.7690    8.3680 O.2   108  THR108     -0.2863
    106  CB        27.3990   -3.5310    8.2510 C.3   108  THR108      0.1794
    107  OG1       27.2760   -3.9640    6.8930 O.3   108  THR108     -0.2208
    108  CG2       28.0130   -4.6450    9.1040 C.3   108  THR108      0.0378
    109  N         24.6530    0.9730   10.1290 N.3   111  LEU111     -0.1245
    110  CA        25.7510    1.7360   10.7140 C.3   111  LEU111      0.1561
    111  C         26.4420    2.6630    9.6990 C.2   111  LEU111      0.2260
    112  O         26.8010    3.7920   10.0210 O.2   111  LEU111     -0.2867
    113  CB        26.7890    0.7770   11.3230 C.3   111  LEU111      0.0270
    114  CG        26.2610   -0.1740   12.4080 C.3   111  LEU111      0.0019
    115  CD1       27.3080   -1.2420   12.7430 C.3   111  LEU111      0.0001
    116  CD2       25.8940    0.6330   13.6560 C.3   111  LEU111      0.0001
@<TRIPOS>BOND
     1    27    26    2
     2    73    71    1
     3    26    25    1
     4    72    70    1
     5    30    29    1
     6    71    70    1
     7    25    24    1
     8    25    28    1
     9    77    76    2
    10    80    81    1
    11    70    67    1
    12    29    28    1
    13    29    31    1
    14    42    41    1
    15    39    40    2
    16    39    38    1
    17    41    38    1
    18    81    82    1
    19    81    84    1
    20    76    75    1
    21   107   106    1
    22    67    68    1
    23    67    66    1
    24    82    83    2
    25    74    68   am
    26    74    75    1
    27    38    37    1
    28    47    48    1
    29     7     5    1
    30    68    69    2
    31    62    61    2
    32    48    49    1
    33    75    78    1
    34    84    85    1
    35    37    34   am
    36     6     5    1
    37    45    46    2
    38    45    44    1
    39    32    33    1
    40    66    61   am
    41    43    44    1
    42   104   105    2
    43   104   103    1
    44    94    95    1
    45   106   103    1
    46   106   108    1
    47    61    60    1
    48    64    63    1
    49    18    17    2
    50     5     2    1
    51    86    85   ar
    52    86    88   ar
    53    34    35    2
    54    34    33    1
    55    85    87   ar
    56    78    79    1
    57   102   103    1
    58   102    96   am
    59    49    50    2
    60    49    51   am
    61    33    36    1
    62    11    10    2
    63    63    60    1
    64    63    65    1
    65    88    89   ar
    66    17    16    1
    67    60    59    1
    68    96    95    1
    69    96    97    2
    70    95    98    1
    71     2     1    1
    72     2     3    1
    73    59    53   am
    74    51    52    1
    75   111   112    2
    76   111   110    1
    77    87    89   ar
    78    87    90   ar
    79   109   110    1
    80     8     3   am
    81     8     9    1
    82    10     9    1
    83    10    15   am
    84    89    91   ar
    85    90    92   ar
    86    98    99    1
    87    16    15    1
    88    16    19    1
    89     3     4    2
    90    14    12    1
    91   110   113    1
    92    53    52    1
    93    53    54    2
    94     9    12    1
    95    52    55    1
    96    12    13    1
    97    20    19    1
    98    20    21    1
    99   113   114    1
   100    91    93   ar
   101    92    93   ar
   102    55    56    1
   103    99   101    1
   104    99   100    1
   105    22    21    2
   106    21    23   am
   107   114   115    1
   108   114   116    1
   109    56    58    1
   110    56    57    1
