@<TRIPOS>MOLECULE
tmp/3a7kB09.pdb
 74 69 0 0 0
SMALL
GASTEIGER

@<TRIPOS>ATOM
      1  N         24.6140   11.5800    7.3900 N.3   118  LEU118     -0.1245
      2  CA        25.0990   12.6260    8.2850 C.3   118  LEU118      0.1561
      3  C         26.0920   13.5200    7.5350 C.2   118  LEU118      0.2260
      4  O         26.0280   14.7460    7.6420 O.2   118  LEU118     -0.2867
      5  CB        25.7500   11.9890    9.5210 C.3   118  LEU118      0.0270
      6  CG        26.3450   12.8230   10.6620 C.3   118  LEU118      0.0019
      7  CD1       27.7480   13.2190   10.3050 C.3   118  LEU118      0.0001
      8  CD2       25.4820   14.0520   10.9620 C.3   118  LEU118      0.0001
      9  N         19.1320   20.2640   12.5730 N.3   128  ALA128     -0.1245
     10  CA        19.0620   19.0360   13.3600 C.3   128  ALA128      0.1562
     11  C         17.8290   18.1840   13.0910 C.2   128  ALA128      0.2260
     12  O         17.9180   16.9580   13.0000 O.2   128  ALA128     -0.2867
     13  CB        19.1540   19.3630   14.8480 C.3   128  ALA128      0.0290
     14  N         18.1990   16.0980    9.9080 N.3   131  LEU131     -0.1231
     15  CA        19.2580   15.1050   10.0720 C.3   131  LEU131      0.1693
     16  C         18.7040   13.9440   10.8910 C.2   131  LEU131      0.2592
     17  O         18.9310   12.7730   10.5730 O.2   131  LEU131     -0.2718
     18  CB        20.4550   15.7030   10.8150 C.3   131  LEU131      0.0284
     19  CG        21.7510   16.0530   10.0780 C.3   131  LEU131      0.0019
     20  CD1       22.0560   15.0040    9.0110 C.3   131  LEU131      0.0001
     21  CD2       21.6310   17.4130    9.4680 C.3   131  LEU131      0.0001
     22  N         17.9730   14.2890   11.9490 N.am  132  PHE132     -0.1976
     23  CA        17.3720   13.3010   12.8510 C.3   132  PHE132      0.1639
     24  C         16.3310   12.4360   12.1380 C.2   132  PHE132      0.2290
     25  O         16.2550   11.2240   12.3610 O.2   132  PHE132     -0.2864
     26  CB        16.7580   14.0360   14.0630 C.3   132  PHE132      0.0560
     27  CG        15.9180   13.1640   14.9630 C.ar  132  PHE132     -0.0200
     28  CD1       14.5650   12.9770   14.7080 C.ar  132  PHE132     -0.0042
     29  CD2       16.4810   12.5340   16.0690 C.ar  132  PHE132     -0.0042
     30  CE1       13.7810   12.1770   15.5420 C.ar  132  PHE132     -0.0003
     31  CE2       15.7070   11.7290   16.9110 C.ar  132  PHE132     -0.0003
     32  CZ        14.3530   11.5530   16.6430 C.ar  132  PHE132     -0.0000
     33  N         18.2200   10.1720    9.3150 N.3   135  ILE135     -0.1231
     34  CA        18.9540    9.1310   10.0120 C.3   135  ILE135      0.1692
     35  C         18.1060    8.0870   10.7330 C.2   135  ILE135      0.2592
     36  O         18.3720    6.8900   10.5920 O.2   135  ILE135     -0.2718
     37  CB        19.9860    9.7790   10.9710 C.3   135  ILE135      0.0266
     38  CG1       21.0480   10.4980   10.1230 C.3   135  ILE135      0.0019
     39  CG2       20.6500    8.7220   11.8610 C.3   135  ILE135      0.0020
     40  CD1       22.0890   11.2670   10.9140 C.3   135  ILE135      0.0001
     41  N         17.0790    8.5040   11.4780 N.am  136  THR136     -0.1953
     42  CA        16.2480    7.5180   12.1770 C.3   136  THR136      0.1897
     43  C         15.4770    6.6240   11.2120 C.2   136  THR136      0.2313
     44  O         15.4650    5.3980   11.3650 O.2   136  THR136     -0.2863
     45  CB        15.2280    8.1690   13.1570 C.3   136  THR136      0.1794
     46  OG1       14.4630    9.1720   12.4750 O.3   136  THR136     -0.2208
     47  CG2       15.9480    8.7820   14.3580 C.3   136  THR136      0.0378
     48  N         17.8010    4.1820    9.5230 N.3   139  ILE139     -0.1231
     49  CA        18.1230    3.0510   10.3870 C.3   139  ILE139      0.1692
     50  C         16.9320    2.0950   10.4160 C.2   139  ILE139      0.2591
     51  O         17.1010    0.8800   10.3430 O.2   139  ILE139     -0.2718
     52  CB        18.4620    3.5290   11.8250 C.3   139  ILE139      0.0266
     53  CG1       19.7920    4.2860   11.8080 C.3   139  ILE139      0.0019
     54  CG2       18.5360    2.3390   12.7820 C.3   139  ILE139      0.0020
     55  CD1       20.2000    4.8530   13.1520 C.3   139  ILE139      0.0001
     56  N         15.7240    2.6480   10.5060 N.am  140  ALA140     -0.1980
     57  CA        14.5080    1.8260   10.5240 C.3   140  ALA140      0.1597
     58  C         14.3830    0.9850    9.2440 C.2   140  ALA140      0.2287
     59  O         13.9280   -0.1560    9.2810 O.2   140  ALA140     -0.2864
     60  CB        13.2810    2.7190   10.6780 C.3   140  ALA140      0.0319
     61  N         16.9640   -1.9280    9.4020 N.3   143  VAL143     -0.1231
     62  CA        16.5830   -2.9510   10.3720 C.3   143  VAL143      0.1692
     63  C         15.3900   -3.7870    9.9330 C.2   143  VAL143      0.2592
     64  O         15.3760   -5.0010   10.1370 O.2   143  VAL143     -0.2718
     65  CB        16.2920   -2.3260   11.7680 C.3   143  VAL143      0.0266
     66  CG1       15.9020   -3.4250   12.7670 C.3   143  VAL143      0.0020
     67  CG2       17.5410   -1.5820   12.2770 C.3   143  VAL143      0.0020
     68  N         14.3840   -3.1570    9.3330 N.am  144  THR144     -0.1953
     69  CA        13.2230   -3.9170    8.8880 C.3   144  THR144      0.1897
     70  C         13.6150   -4.7840    7.6880 C.2   144  THR144      0.2313
     71  O         13.0390   -5.8480    7.4600 O.2   144  THR144     -0.2863
     72  CB        12.0120   -2.9840    8.5630 C.3   144  THR144      0.1794
     73  OG1       12.4120   -1.9290    7.6750 O.3   144  THR144     -0.2208
     74  CG2       11.4650   -2.3750    9.8570 C.3   144  THR144      0.0378
@<TRIPOS>BOND
     1     1     2    1
     2    71    70    2
     3     3     4    2
     4     3     2    1
     5    73    72    1
     6    70    69    1
     7     2     5    1
     8    72    69    1
     9    72    74    1
    10    69    68    1
    11    20    19    1
    12    58    59    2
    13    58    57    1
    14    33    34    1
    15    68    63   am
    16    61    62    1
    17    21    19    1
    18     5     6    1
    19    48    49    1
    20    14    15    1
    21    63    64    2
    22    63    62    1
    23    34    35    1
    24    34    37    1
    25    15    18    1
    26    15    16    1
    27    19    18    1
    28    38    40    1
    29    38    37    1
    30     7     6    1
    31    51    50    2
    32    62    65    1
    33    49    50    1
    34    49    52    1
    35    50    56   am
    36    56    57    1
    37    57    60    1
    38    17    16    2
    39    36    35    2
    40     6     8    1
    41    35    41   am
    42    16    22   am
    43    37    39    1
    44    43    44    2
    45    43    42    1
    46    41    42    1
    47    65    67    1
    48    65    66    1
    49    53    52    1
    50    53    55    1
    51    52    54    1
    52    22    23    1
    53    24    25    2
    54    24    23    1
    55    42    45    1
    56    46    45    1
    57     9    10    1
    58    23    26    1
    59    12    11    2
    60    11    10    1
    61    45    47    1
    62    10    13    1
    63    26    27    1
    64    28    27   ar
    65    28    30   ar
    66    27    29   ar
    67    30    32   ar
    68    29    31   ar
    69    32    31   ar
