@<TRIPOS>MOLECULE
tmp/3a7kA10.pdb
 78 70 0 0 0
SMALL
GASTEIGER

@<TRIPOS>ATOM
      1  N         43.8290    6.7630   21.0350 N.3   173  LEU173     -0.1245
      2  CA        45.0740    7.1110   21.7100 C.3   173  LEU173      0.1561
      3  C         45.6040    8.4630   21.2530 C.2   173  LEU173      0.2260
      4  O         46.0630    9.2740   22.0710 O.2   173  LEU173     -0.2867
      5  CB        46.1310    6.0280   21.4700 C.3   173  LEU173      0.0270
      6  CG        45.8780    4.7020   22.1950 C.3   173  LEU173      0.0019
      7  CD1       46.9120    3.6690   21.7640 C.3   173  LEU173      0.0001
      8  CD2       45.9370    4.9280   23.7040 C.3   173  LEU173      0.0001
      9  N         46.1410   11.4940   23.8090 N.3   177  LEU177     -0.1231
     10  CA        47.5170   11.9510   23.9920 C.3   177  LEU177      0.1693
     11  C         47.9530   13.2070   23.2470 C.2   177  LEU177      0.2591
     12  O         48.8880   13.8850   23.6710 O.2   177  LEU177     -0.2718
     13  CB        48.4740   10.8130   23.6290 C.3   177  LEU177      0.0284
     14  CG        48.5700    9.6050   24.5640 C.3   177  LEU177      0.0019
     15  CD1       49.2110    8.4370   23.8130 C.3   177  LEU177      0.0001
     16  CD2       49.3920    9.9690   25.8070 C.3   177  LEU177      0.0001
     17  N         47.2920   13.5200   22.1430 N.am  178  VAL178     -0.1980
     18  CA        47.6670   14.6920   21.3620 C.3   178  VAL178      0.1595
     19  C         46.6520   15.8160   21.4380 C.2   178  VAL178      0.2287
     20  O         46.9560   16.9180   21.9040 O.2   178  VAL178     -0.2864
     21  CB        47.8680   14.3230   19.8720 C.3   178  VAL178      0.0276
     22  CG1       48.3020   15.5700   19.0700 C.3   178  VAL178      0.0022
     23  CG2       48.9160   13.2160   19.7460 C.3   178  VAL178      0.0022
     24  N         45.0890   16.5320   25.2420 N.3   181  ALA181     -0.1231
     25  CA        46.1550   16.9620   26.1440 C.3   181  ALA181      0.1694
     26  C         46.3660   18.4790   26.0110 C.2   181  ALA181      0.2591
     27  O         46.6870   19.1670   26.9880 O.2   181  ALA181     -0.2718
     28  CB        47.4460   16.2200   25.8270 C.3   181  ALA181      0.0304
     29  N         46.1840   18.9940   24.7980 N.am  182  GLN182     -0.1979
     30  CA        46.3450   20.4200   24.5460 C.3   182  GLN182      0.1601
     31  C         45.0840   21.2010   24.8890 C.2   182  GLN182      0.2287
     32  O         45.1620   22.3210   25.3920 O.2   182  GLN182     -0.2864
     33  CB        46.7280   20.6610   23.0870 C.3   182  GLN182      0.0394
     34  CG        48.1140   20.1470   22.7440 C.3   182  GLN182      0.0908
     35  CD        49.1560   20.5840   23.7640 C.2   182  GLN182      0.2608
     36  OE1       49.2920   21.7750   24.0600 O.2   182  GLN182     -0.2717
     37  NE2       49.8980   19.6190   24.3070 N.am  182  GLN182     -0.0878
     38  N         44.5340   22.3710   28.5540 N.3   185  LYS185     -0.1245
     39  CA        45.2690   23.5400   29.0080 C.3   185  LYS185      0.1561
     40  C         44.3920   24.7790   28.8600 C.2   185  LYS185      0.2260
     41  O         44.4210   25.6650   29.7080 O.2   185  LYS185     -0.2867
     42  CB        46.5700   23.6720   28.2190 C.3   185  LYS185      0.0271
     43  CG        47.4560   22.4440   28.3820 C.3   185  LYS185      0.0035
     44  CD        48.8190   22.6290   27.7460 C.3   185  LYS185      0.0206
     45  CE        49.7210   21.4450   28.0390 C.3   185  LYS185      0.1093
     46  NZ        51.0730   21.6410   27.4380 N.3   185  LYS185     -0.1314
     47  N         44.4420   10.9990   31.8640 N.3   197  LYS197     -0.1245
     48  CA        44.8520   10.6600   30.5130 C.3   197  LYS197      0.1561
     49  C         45.8280    9.4910   30.5800 C.2   197  LYS197      0.2260
     50  O         45.6470    8.4730   29.9110 O.2   197  LYS197     -0.2867
     51  CB        45.5420   11.8720   29.8630 C.3   197  LYS197      0.0271
     52  CG        46.1230   11.5950   28.4840 C.3   197  LYS197      0.0035
     53  CD        47.1690   12.6500   28.1110 C.3   197  LYS197      0.0206
     54  CE        48.3570   12.5900   29.0580 C.3   197  LYS197      0.1093
     55  NZ        49.3760   13.6250   28.7730 N.3   197  LYS197     -0.1314
     56  N         45.4690    5.6690   29.3880 N.3   201  VAL201     -0.1245
     57  CA        46.2880    5.0860   28.3270 C.3   201  VAL201      0.1561
     58  C         47.0190    3.8160   28.7850 C.2   201  VAL201      0.2260
     59  O         47.0500    2.8140   28.0650 O.2   201  VAL201     -0.2867
     60  CB        47.3190    6.1030   27.7810 C.3   201  VAL201      0.0252
     61  CG1       48.2900    5.3930   26.8340 C.3   201  VAL201      0.0019
     62  CG2       46.5900    7.2340   27.0300 C.3   201  VAL201      0.0019
     63  N         46.0270   -0.0770   27.3750 N.3   205  LEU205     -0.1245
     64  CA        47.0330   -0.8370   26.6350 C.3   205  LEU205      0.1561
     65  C         47.0350   -2.2710   27.1670 C.2   205  LEU205      0.2260
     66  O         47.4130   -3.2120   26.4650 O.2   205  LEU205     -0.2867
     67  CB        48.4200   -0.1990   26.8100 C.3   205  LEU205      0.0270
     68  CG        48.6020    1.0930   25.9980 C.3   205  LEU205      0.0019
     69  CD1       49.9410    1.7510   26.3230 C.3   205  LEU205      0.0001
     70  CD2       48.5040    0.7700   24.5070 C.3   205  LEU205      0.0001
     71  N         46.8210   -6.6610   25.2620 N.3   209  ILE209     -0.1245
     72  CA        47.9270   -7.5080   25.7020 C.3   209  ILE209      0.1561
     73  C         47.3190   -8.7820   26.3050 C.2   209  ILE209      0.2260
     74  O         47.7360   -9.9010   25.9850 O.2   209  ILE209     -0.2867
     75  CB        48.8070   -6.7930   26.7600 C.3   209  ILE209      0.0252
     76  CG1       49.5940   -5.6570   26.0990 C.3   209  ILE209      0.0019
     77  CG2       49.7580   -7.7920   27.4240 C.3   209  ILE209      0.0019
     78  CD1       50.2520   -4.7030   27.0860 C.3   209  ILE209      0.0001
@<TRIPOS>BOND
     1    22    21    1
     2    23    21    1
     3    21    18    1
     4     1     2    1
     5     3     2    1
     6     3     4    2
     7    18    19    1
     8    18    17    1
     9    19    20    2
    10     5     2    1
    11     5     6    1
    12     7     6    1
    13    17    11   am
    14     6     8    1
    15    34    33    1
    16    34    35    1
    17    33    30    1
    18    11    12    2
    19    11    10    1
    20    13    10    1
    21    13    14    1
    22    35    36    2
    23    35    37   am
    24     9    10    1
    25    15    14    1
    26    70    68    1
    27    30    29    1
    28    30    31    1
    29    14    16    1
    30    29    26   am
    31    31    32    2
    32    24    25    1
    33    71    72    1
    34    72    73    1
    35    72    75    1
    36    28    25    1
    37    74    73    2
    38    68    69    1
    39    68    67    1
    40    26    25    1
    41    26    27    2
    42    76    75    1
    43    76    78    1
    44    66    65    2
    45    64    67    1
    46    64    65    1
    47    64    63    1
    48    75    77    1
    49    61    60    1
    50    62    60    1
    51    46    45    1
    52    44    45    1
    53    44    43    1
    54    60    57    1
    55    59    58    2
    56    53    52    1
    57    53    54    1
    58    42    43    1
    59    42    39    1
    60    57    58    1
    61    57    56    1
    62    52    51    1
    63    38    39    1
    64    55    54    1
    65    40    39    1
    66    40    41    2
    67    51    48    1
    68    50    49    2
    69    48    49    1
    70    48    47    1
