@<TRIPOS>MOLECULE
tmp/3a7nA01.pdb
 90 90 0 0 0
SMALL
GASTEIGER

@<TRIPOS>ATOM
      1  N        -24.5810  -17.8500   20.0870 N.3     1  HIS1       -0.1226
      2  CA       -23.8540  -17.0750   19.0390 C.3     1  HIS1        0.1752
      3  C        -23.1140  -15.8920   19.6580 C.2     1  HIS1        0.2596
      4  O        -23.6110  -15.2650   20.5950 O.2     1  HIS1       -0.2718
      5  CB       -24.8270  -16.5870   17.9590 C.3     1  HIS1        0.0759
      6  CG       -24.1670  -15.8330   16.8460 C.ar    1  HIS1        0.0818
      7  ND1      -23.4670  -16.4600   15.8360 N.ar    1  HIS1       -0.2268
      8  CD2      -24.0970  -14.5050   16.5870 C.ar    1  HIS1        0.1154
      9  CE1      -22.9920  -15.5500   15.0040 C.ar    1  HIS1        0.1986
     10  NE2      -23.3610  -14.3550   15.4360 N.ar    1  HIS1       -0.2212
     11  N        -21.9240  -15.6020   19.1360 N.am    2  HIS2       -0.1961
     12  CA       -21.1180  -14.4780   19.6070 C.3     2  HIS2        0.1787
     13  C        -20.6790  -13.6150   18.4260 C.2     2  HIS2        0.2621
     14  O        -20.3260  -14.1340   17.3650 O.2     2  HIS2       -0.2715
     15  CB       -19.9050  -14.9720   20.4010 C.3     2  HIS2        0.0785
     16  CG       -20.2620  -15.8590   21.5540 C.ar    2  HIS2        0.0821
     17  ND1      -20.5880  -17.1900   21.3960 N.ar    2  HIS2       -0.2267
     18  CD2      -20.3530  -15.6050   22.8820 C.ar    2  HIS2        0.1154
     19  CE1      -20.8590  -17.7190   22.5770 C.ar    2  HIS2        0.1986
     20  NE2      -20.7220  -16.7780   23.4950 N.ar    2  HIS2       -0.2212
     21  N        -20.7160  -12.3000   18.6120 N.am    3  GLY3       -0.1940
     22  CA       -20.3810  -11.3650   17.5430 C.3     3  GLY3        0.2014
     23  C        -20.6800   -9.9230   17.8860 C.2     3  GLY3        0.2639
     24  O        -20.4880   -9.4920   19.0250 O.2     3  GLY3       -0.2714
     25  N        -21.1660   -9.1820   16.8940 N.am    4  MET4       -0.1963
     26  CA       -21.4160   -7.7460   17.0380 C.3     4  MET4        0.1736
     27  C        -22.4640   -7.3980   18.0970 C.2     4  MET4        0.2616
     28  O        -22.4080   -6.3210   18.6860 O.2     4  MET4       -0.2715
     29  CB       -21.7840   -7.1210   15.6900 C.3     4  MET4        0.0427
     30  CG       -23.0940   -7.5990   15.1040 C.3     4  MET4        0.0599
     31  SD       -23.2980   -7.0160   13.4160 S.3     4  MET4       -0.1393
     32  CE       -25.0190   -7.4010   13.1650 C.3     4  MET4        0.0692
     33  N        -23.4120   -8.3070   18.3300 N.am    5  ALA5       -0.1977
     34  CA       -24.4450   -8.1020   19.3460 C.3     5  ALA5        0.1597
     35  C        -23.8270   -8.0380   20.7440 C.2     5  ALA5        0.2287
     36  O        -24.1830   -7.1700   21.5440 O.2     5  ALA5       -0.2864
     37  CB       -25.5040   -9.1870   19.2660 C.3     5  ALA5        0.0319
     38  N        -24.4030   -4.5150    8.4560 N.3    42  ILE42      -0.1245
     39  CA       -25.3230   -5.6200    8.1780 C.3    42  ILE42       0.1561
     40  C        -26.6960   -5.1060    7.7230 C.2    42  ILE42       0.2260
     41  O        -27.2790   -5.6430    6.7820 O.2    42  ILE42      -0.2867
     42  CB       -25.4470   -6.5940    9.3930 C.3    42  ILE42       0.0252
     43  CG1      -24.0760   -7.1910    9.7670 C.3    42  ILE42       0.0019
     44  CG2      -26.4920   -7.6890    9.1350 C.3    42  ILE42       0.0019
     45  CD1      -23.3950   -8.0300    8.6900 C.3    42  ILE42       0.0001
     46  N        -21.4440   -7.2840    4.2610 N.3    47  ARG47      -0.1231
     47  CA       -20.8410   -8.2520    5.1720 C.3    47  ARG47       0.1694
     48  C        -19.5230   -7.7070    5.7080 C.2    47  ARG47       0.2592
     49  O        -19.0050   -6.7000    5.2140 O.2    47  ARG47      -0.2718
     50  CB       -20.6070   -9.5960    4.4720 C.3    47  ARG47       0.0321
     51  CG       -21.8750  -10.4040    4.2340 C.3    47  ARG47       0.0489
     52  CD       -21.5920  -11.7670    3.6170 C.3    47  ARG47       0.2205
     53  NE       -22.8440  -12.4490    3.2790 N.pl3  47  ARG47      -0.0865
     54  CZ       -23.0060  -13.2920    2.2610 C.cat  47  ARG47       0.5346
     55  NH1      -21.9910  -13.5740    1.4550 N.pl3  47  ARG47       0.1354
     56  NH2      -24.1930  -13.8470    2.0360 N.pl3  47  ARG47       0.1354
     57  N        -18.9940   -8.3770    6.7250 N.am   48  TYR48      -0.1976
     58  CA       -17.6610   -8.0810    7.2190 C.3    48  TYR48       0.1639
     59  C        -16.9170   -9.3670    7.5690 C.2    48  TYR48       0.2290
     60  O        -17.5310  -10.4190    7.7870 O.2    48  TYR48      -0.2864
     61  CB       -17.7060   -7.1060    8.4080 C.3    48  TYR48       0.0560
     62  CG       -18.1480   -7.7130    9.7240 C.ar   48  TYR48      -0.0198
     63  CD1      -17.2290   -8.3370   10.5650 C.ar   48  TYR48      -0.0009
     64  CD2      -19.4800   -7.6490   10.1350 C.ar   48  TYR48      -0.0009
     65  CE1      -17.6190   -8.8920   11.7730 C.ar   48  TYR48       0.0417
     66  CE2      -19.8840   -8.2010   11.3490 C.ar   48  TYR48       0.0417
     67  CZ       -18.9430   -8.8190   12.1600 C.ar   48  TYR48       0.1957
     68  OH       -19.3160   -9.3730   13.3540 O.3    48  TYR48      -0.2866
     69  N        -13.4060  -10.7070   10.0760 N.3    50  PRO50      -0.2102
     70  CA       -13.6700  -12.1450   10.1830 C.3    50  PRO50       0.1504
     71  C        -15.0490  -12.4150   10.7920 C.2    50  PRO50       0.2576
     72  O        -15.8510  -11.4920   10.9300 O.2    50  PRO50      -0.2718
     73  CB       -12.5770  -12.6170   11.1440 C.3    50  PRO50       0.0282
     74  CG       -12.3810  -11.4520   12.0640 C.3    50  PRO50       0.0208
     75  CD       -12.5810  -10.2230   11.2020 C.3    50  PRO50       0.0893
     76  N        -15.3140  -13.6650   11.1600 N.am   51  ALA51      -0.1966
     77  CA       -16.5290  -14.0010   11.9010 C.3    51  ALA51       0.1728
     78  C        -16.6410  -13.1240   13.1490 C.2    51  ALA51       0.2617
     79  O        -15.6270  -12.7570   13.7520 O.2    51  ALA51      -0.2715
     80  CB       -16.5320  -15.4780   12.2780 C.3    51  ALA51       0.0334
     81  N        -17.8740  -12.7790   13.5210 N.am   52  GLY52      -0.1940
     82  CA       -18.1330  -11.9430   14.6920 C.3    52  GLY52       0.2014
     83  C        -17.4440  -12.4440   15.9460 C.2    52  GLY52       0.2639
     84  O        -16.8870  -11.6590   16.7170 O.2    52  GLY52      -0.2714
     85  N        -17.4690  -13.7600   16.1320 N.am   53  SER53      -0.1949
     86  CA       -16.8910  -14.4020   17.3100 C.3    53  SER53       0.1924
     87  C        -15.3620  -14.3380   17.3420 C.2    53  SER53       0.2314
     88  O        -14.7590  -14.5860   18.3860 O.2    53  SER53      -0.2863
     89  CB       -17.3620  -15.8560   17.4050 C.3    53  SER53       0.2116
     90  OG       -16.9610  -16.5910   16.2600 O.3    53  SER53      -0.2180
@<TRIPOS>BOND
     1    55    54    1
     2    56    54    1
     3    54    53    2
     4    53    52    1
     5    52    51    1
     6    51    50    1
     7    46    47    1
     8    50    47    1
     9    47    48    1
    10    49    48    2
    11    48    57   am
    12    57    58    1
    13    41    40    2
    14    58    59    1
    15    58    61    1
    16    59    60    2
    17    40    39    1
    18    39    38    1
    19    39    42    1
    20    61    62    1
    21    45    43    1
    22    44    42    1
    23    42    43    1
    24    62    64   ar
    25    62    63   ar
    26    69    70    1
    27    69    75    1
    28    64    66   ar
    29    70    71    1
    30    70    73    1
    31    63    65   ar
    32    71    72    2
    33    71    76   am
    34    73    74    1
    35    76    77    1
    36    75    74    1
    37    66    67   ar
    38    65    67   ar
    39    77    80    1
    40    77    78    1
    41    67    68    1
    42    78    81   am
    43    78    79    2
    44    32    31    1
    45    31    30    1
    46    81    82    1
    47    82    83    1
    48     9    10   ar
    49     9     7   ar
    50    30    29    1
    51    10     8   ar
    52    29    26    1
    53     7     6   ar
    54    83    85   am
    55    83    84    2
    56    85    86    1
    57    90    89    1
    58     8     6   ar
    59     6     5    1
    60    25    26    1
    61    25    23   am
    62    26    27    1
    63    86    87    1
    64    86    89    1
    65    87    88    2
    66    14    13    2
    67    22    23    1
    68    22    21    1
    69    23    24    2
    70     5     2    1
    71    27    33   am
    72    27    28    2
    73    33    34    1
    74    13    21   am
    75    13    12    1
    76     2     3    1
    77     2     1    1
    78    11    12    1
    79    11     3   am
    80    37    34    1
    81    34    35    1
    82    12    15    1
    83     3     4    2
    84    15    16    1
    85    35    36    2
    86    17    16   ar
    87    17    19   ar
    88    16    18   ar
    89    19    20   ar
    90    18    20   ar
