@<TRIPOS>MOLECULE
tmp/3a7nA00.pdb
 96 94 0 0 0
SMALL
GASTEIGER

@<TRIPOS>ATOM
      1  N         -0.3450   -6.3310   12.2140 N.3    72  GLY72      -0.1210
      2  CA        -0.7950   -6.3470   10.8330 C.3    72  GLY72       0.1956
      3  C         -1.6620   -5.1230   10.6220 C.2    72  GLY72       0.2612
      4  O         -1.9470   -4.3870   11.5720 O.2    72  GLY72      -0.2717
      5  N         -2.0820   -4.8980    9.3840 N.am   73  GLN73      -0.1965
      6  CA        -2.8430   -3.6960    9.0540 C.3    73  GLN73       0.1733
      7  C         -4.3380   -3.9280    9.2420 C.2    73  GLN73       0.2616
      8  O         -4.9690   -3.2750   10.0710 O.2    73  GLN73      -0.2715
      9  CB        -2.5120   -3.2120    7.6360 C.3    73  GLN73       0.0408
     10  CG        -1.1000   -2.6330    7.4850 C.3    73  GLN73       0.0908
     11  CD        -0.0040   -3.5910    7.9490 C.2    73  GLN73       0.2608
     12  OE1        0.1550   -4.6870    7.4080 O.2    73  GLN73      -0.2717
     13  NE2        0.7500   -3.1780    8.9650 N.am   73  GLN73      -0.0878
     14  N         -4.8970   -4.8640    8.4810 N.am   74  ASP74      -0.1958
     15  CA        -6.3010   -5.2490    8.6390 C.3    74  ASP74       0.1825
     16  C         -6.4960   -6.7230    8.2560 C.2    74  ASP74       0.2464
     17  O         -5.5670   -7.3390    7.7410 O.2    74  ASP74      -0.2730
     18  CB        -7.2220   -4.3070    7.8490 C.3    74  ASP74       0.1450
     19  CG        -7.1370   -4.5090    6.3570 C.2    74  ASP74       0.3671
     20  OD1       -6.0430   -4.8330    5.8440 O.co2  74  ASP74      -0.2456
     21  OD2       -8.1760   -4.3320    5.6850 O.co2  74  ASP74      -0.2456
     22  N         -7.6900   -7.2990    8.5100 N.am   75  PRO75      -0.2715
     23  CA        -7.8190   -8.7400    8.2590 C.3    75  PRO75       0.1536
     24  C         -7.6880   -9.0900    6.7770 C.2    75  PRO75       0.2598
     25  O         -7.9550   -8.2430    5.9200 O.2    75  PRO75      -0.2715
     26  CB        -9.2350   -9.0630    8.7530 C.3    75  PRO75       0.0310
     27  CG        -9.6510   -7.8830    9.5940 C.3    75  PRO75       0.0237
     28  CD        -8.9520   -6.7140    9.0030 C.3    75  PRO75       0.0939
     29  N         -7.2620  -10.3200    6.4850 N.am   76  TYR76      -0.1961
     30  CA        -7.3060  -10.8580    5.1210 C.3    76  TYR76       0.1756
     31  C         -8.6780  -10.5880    4.4940 C.2    76  TYR76       0.2461
     32  O         -9.7070  -10.8340    5.1330 O.2    76  TYR76      -0.2730
     33  CB        -7.0440  -12.3720    5.1180 C.3    76  TYR76       0.0574
     34  CG        -5.6230  -12.7890    5.4410 C.ar   76  TYR76      -0.0198
     35  CD1       -4.5480  -12.3380    4.6720 C.ar   76  TYR76      -0.0009
     36  CD2       -5.3560  -13.6550    6.5020 C.ar   76  TYR76      -0.0009
     37  CE1       -3.2440  -12.7230    4.9650 C.ar   76  TYR76       0.0417
     38  CE2       -4.0540  -14.0520    6.7980 C.ar   76  TYR76       0.0417
     39  CZ        -3.0050  -13.5850    6.0250 C.ar   76  TYR76       0.1957
     40  OH        -1.7160  -13.9710    6.3080 O.3    76  TYR76      -0.2866
     41  N         -8.6980  -10.0570    3.2570 N.am   77  PRO77      -0.2727
     42  CA        -9.9490   -9.7430    2.5660 C.3    77  PRO77       0.1402
     43  C        -10.6460  -10.9660    1.9460 C.2    77  PRO77       0.2269
     44  O        -11.8140  -10.8810    1.5620 O.2    77  PRO77      -0.2865
     45  CB        -9.5030   -8.7670    1.4720 C.3    77  PRO77       0.0296
     46  CG        -8.1100   -9.1430    1.1760 C.3    77  PRO77       0.0237
     47  CD        -7.5170   -9.6940    2.4500 C.3    77  PRO77       0.0939
     48  N         -6.6800  -13.2210   14.1570 N.3    85  LEU85      -0.1245
     49  CA        -5.2810  -13.0950   14.5460 C.3    85  LEU85       0.1561
     50  C         -4.5200  -12.6360   13.3170 C.2    85  LEU85       0.2260
     51  O         -4.6460  -13.2440   12.2540 O.2    85  LEU85      -0.2867
     52  CB        -4.7190  -14.4320   15.0440 C.3    85  LEU85       0.0270
     53  CG        -5.4230  -15.1680   16.1930 C.3    85  LEU85       0.0019
     54  CD1       -4.8080  -16.5410   16.3990 C.3    85  LEU85       0.0001
     55  CD2       -5.3680  -14.3600   17.4890 C.3    85  LEU85       0.0001
     56  N         -2.2880  -12.2350   10.3240 N.3    87  PHE87      -0.1241
     57  CA        -1.5300  -13.1690    9.4650 C.3    87  PHE87       0.1605
     58  C         -1.9630  -14.6360    9.4860 C.2    87  PHE87       0.2264
     59  O         -1.6170  -15.3950    8.5790 O.2    87  PHE87      -0.2867
     60  CB        -0.0200  -13.0400    9.6990 C.3    87  PHE87       0.0534
     61  CG         0.5020  -11.6590    9.4520 C.ar   87  PHE87      -0.0203
     62  CD1        0.8060  -10.8180   10.5160 C.ar   87  PHE87      -0.0042
     63  CD2        0.6580  -11.1840    8.1530 C.ar   87  PHE87      -0.0042
     64  CE1        1.2730   -9.5250   10.2950 C.ar   87  PHE87      -0.0003
     65  CE2        1.1330   -9.8960    7.9230 C.ar   87  PHE87      -0.0003
     66  CZ         1.4330   -9.0640    8.9990 C.ar   87  PHE87      -0.0000
     67  N          1.4410  -13.5670    1.9510 N.3    99  SER99      -0.1217
     68  CA         2.1020  -12.9590    3.1050 C.3    99  SER99       0.1889
     69  C          2.5180  -14.0140    4.1360 C.2    99  SER99       0.2288
     70  O          3.6280  -13.9690    4.6730 O.2    99  SER99      -0.2866
     71  CB         1.1940  -11.9180    3.7630 C.3    99  SER99       0.2089
     72  OG         1.0820  -10.7660    2.9440 O.3    99  SER99      -0.2183
     73  N         -4.1100   -6.9540   14.5200 N.3   133  ASN133     -0.1240
     74  CA        -4.3670   -6.0880   13.3690 C.3   133  ASN133      0.1653
     75  C         -4.7580   -4.7010   13.8660 C.2   133  ASN133      0.2266
     76  O         -5.4410   -4.5760   14.8790 O.2   133  ASN133     -0.2867
     77  CB        -5.4550   -6.6670   12.4540 C.3   133  ASN133      0.1155
     78  CG        -4.9270   -7.7410   11.5130 C.2   133  ASN133      0.2627
     79  OD1       -3.8050   -7.6500   11.0140 O.2   133  ASN133     -0.2716
     80  ND2       -5.7410   -8.7600   11.2590 N.am  133  ASN133     -0.0877
     81  N          7.5680   -5.3420    4.8870 N.3   197  HIS197     -0.1241
     82  CA         6.4040   -6.2030    5.1310 C.3   197  HIS197      0.1621
     83  C          6.5370   -7.5430    4.3780 C.2   197  HIS197      0.2264
     84  O          7.0750   -7.5640    3.2680 O.2   197  HIS197     -0.2867
     85  CB         5.1560   -5.4400    4.6640 C.3   197  HIS197      0.0745
     86  CG         3.8580   -6.0080    5.1510 C.ar  197  HIS197      0.0817
     87  ND1        3.2510   -7.0940    4.5590 N.ar  197  HIS197     -0.2268
     88  CD2        3.0330   -5.6150    6.1500 C.ar  197  HIS197      0.1154
     89  CE1        2.1170   -7.3570    5.1830 C.ar  197  HIS197      0.1986
     90  NE2        1.9580   -6.4700    6.1480 N.ar  197  HIS197     -0.2212
     91  N          4.4150   -9.1450    2.7610 N.3   199  SER199     -0.1217
     92  CA         3.6510   -9.1200    1.5090 C.3   199  SER199      0.1889
     93  C          4.5740   -9.3240    0.2950 C.2   199  SER199      0.2288
     94  O          5.7020   -8.8310    0.2990 O.2   199  SER199     -0.2866
     95  CB         2.9040   -7.7840    1.3890 C.3   199  SER199      0.2089
     96  OG         2.3440   -7.6140    0.1030 O.3   199  SER199     -0.2183
@<TRIPOS>BOND
     1    96    95    1
     2    93    94    2
     3    93    92    1
     4    46    45    1
     5    46    47    1
     6    95    92    1
     7    45    42    1
     8    92    91    1
     9    44    43    2
    10    43    42    1
    11    67    68    1
    12    47    41    1
    13    42    41    1
    14    72    71    1
    15    68    71    1
    16    68    69    1
    17    41    31   am
    18    84    83    2
    19    69    70    2
    20    83    82    1
    21    31    30    1
    22    31    32    2
    23    87    86   ar
    24    87    89   ar
    25    85    82    1
    26    85    86    1
    27    35    37   ar
    28    35    34   ar
    29    81    82    1
    30    37    39   ar
    31    33    30    1
    32    33    34    1
    33    30    29    1
    34    86    88   ar
    35    89    90   ar
    36    34    36   ar
    37    21    19   ar
    38    20    19   ar
    39    25    24    2
    40    39    40    1
    41    39    38   ar
    42    90    88   ar
    43    19    18    1
    44    29    24   am
    45    36    38   ar
    46    24    23    1
    47    12    11    2
    48    10     9    1
    49    10    11    1
    50     9     6    1
    51    17    16    2
    52    18    15    1
    53    65    63   ar
    54    65    66   ar
    55    11    13   am
    56    63    61   ar
    57    16    22   am
    58    16    15    1
    59    23    22    1
    60    23    26    1
    61    14    15    1
    62    14     7   am
    63    22    28    1
    64    59    58    2
    65    26    27    1
    66    66    64   ar
    67    28    27    1
    68     6     7    1
    69     6     5    1
    70     7     8    2
    71     5     3   am
    72    61    60    1
    73    61    62   ar
    74    57    58    1
    75    57    60    1
    76    57    56    1
    77    64    62   ar
    78     3     2    1
    79     3     4    2
    80     2     1    1
    81    79    78    2
    82    80    78   am
    83    78    77    1
    84    51    50    2
    85    77    74    1
    86    50    49    1
    87    74    75    1
    88    74    73    1
    89    75    76    2
    90    48    49    1
    91    49    52    1
    92    52    53    1
    93    53    54    1
    94    53    55    1
