@<TRIPOS>MOLECULE
tmp/3a7vA00.pdb
 125 125 0 0 0
SMALL
GASTEIGER

@<TRIPOS>ATOM
      1  N          7.3320  -16.8110    8.6370 N.3    40  HIS40      -0.1241
      2  CA         6.3550  -17.9240    8.6390 C.3    40  HIS40       0.1621
      3  C          5.2730  -17.8070    7.5580 C.2    40  HIS40       0.2264
      4  O          4.5400  -18.7260    7.3100 O.2    40  HIS40      -0.2867
      5  CB         5.7880  -18.2600   10.0020 C.3    40  HIS40       0.0745
      6  CG         4.6270  -17.4210   10.4130 C.ar   40  HIS40       0.0817
      7  ND1        4.7410  -16.3600   11.2840 N.ar   40  HIS40      -0.2268
      8  CD2        3.3160  -17.5370   10.1240 C.ar   40  HIS40       0.1154
      9  CE1        3.5490  -15.8560   11.5100 C.ar   40  HIS40       0.1986
     10  NE2        2.6680  -16.5400   10.8020 N.ar   40  HIS40      -0.2212
     11  N         -6.7950   -8.4160   20.2960 N.3   171  ASP171     -0.1225
     12  CA        -5.5550   -9.0830   19.8500 C.3   171  ASP171      0.1805
     13  C         -5.5360   -9.1730   18.3240 C.2   171  ASP171      0.2598
     14  O         -6.5690   -8.9970   17.6750 O.2   171  ASP171     -0.2718
     15  CB        -5.5220  -10.5130   20.4200 C.3   171  ASP171      0.1424
     16  CG        -4.1110  -11.1290   20.4760 C.2   171  ASP171      0.3668
     17  OD1       -3.1000  -10.4770   20.1010 O.co2 171  ASP171     -0.2456
     18  OD2       -4.0310  -12.3040   20.9070 O.co2 171  ASP171     -0.2456
     19  N         -4.3630   -9.4360   17.7550 N.am  172  SER172     -0.1938
     20  CA        -4.2940   -9.9380   16.3790 C.3   172  SER172      0.2055
     21  C         -4.6110  -11.4390   16.3830 C.2   172  SER172      0.2643
     22  O         -4.7400  -12.0500   17.4540 O.2   172  SER172     -0.2714
     23  CB        -2.9210   -9.6650   15.7470 C.3   172  SER172      0.2130
     24  OG        -1.8520  -10.1490   16.5580 O.3   172  SER172     -0.2179
     25  N         -4.7300  -12.0330   15.1950 N.am  173  CYS173     -0.1953
     26  CA        -5.1530  -13.4250   15.0820 C.3   173  CYS173      0.1843
     27  C         -4.7160  -14.0540   13.7470 C.2   173  CYS173      0.2625
     28  O         -4.0500  -13.4040   12.9400 O.2   173  CYS173     -0.2714
     29  CB        -6.6740  -13.4950   15.2800 C.3   173  CYS173      0.0997
     30  SG        -7.3460  -15.1120   15.7190 S.3   173  CYS173     -0.0797
     31  N         -5.1100  -15.3070   13.5280 N.am  174  GLN174     -0.1977
     32  CA        -4.8520  -16.0200   12.2870 C.3   174  GLN174      0.1601
     33  C         -5.1930  -15.1250   11.0810 C.2   174  GLN174      0.2287
     34  O         -6.2330  -14.5570   11.0750 O.2   174  GLN174     -0.2864
     35  CB        -5.6900  -17.2660   12.2210 C.3   174  GLN174      0.0394
     36  CG        -5.0450  -18.4320   12.8500 C.3   174  GLN174      0.0908
     37  CD        -4.6150  -18.1920   14.2860 C.2   174  GLN174      0.2608
     38  OE1       -5.4220  -18.0320   15.1340 O.2   174  GLN174     -0.2717
     39  NE2       -3.3360  -18.1790   14.5230 N.am  174  GLN174     -0.0878
     40  N         -1.0180  -12.4080   10.4110 N.3   177  SER177     -0.1217
     41  CA         0.4130  -12.6820   10.4510 C.3   177  SER177      0.1889
     42  C          1.1430  -11.9400    9.3570 C.2   177  SER177      0.2288
     43  O          0.6570  -11.8500    8.2160 O.2   177  SER177     -0.2866
     44  CB         0.6610  -14.1800   10.3060 C.3   177  SER177      0.2089
     45  OG         0.3000  -14.8330   11.5050 O.3   177  SER177     -0.2183
     46  N          3.2990   -8.9200   13.0690 N.3   191  VAL191     -0.1231
     47  CA         2.4180   -9.9320   13.6810 C.3   191  VAL191      0.1692
     48  C          3.0600  -11.3100   13.5030 C.2   191  VAL191      0.2593
     49  O          3.2710  -11.7620   12.3740 O.2   191  VAL191     -0.2718
     50  CB         1.0250   -9.9440   13.0330 C.3   191  VAL191      0.0266
     51  CG1        0.1270  -10.9870   13.7230 C.3   191  VAL191      0.0020
     52  CG2        0.3830   -8.5520   13.0800 C.3   191  VAL191      0.0020
     53  N          3.3770  -11.9680   14.6170 N.am  192  SER192     -0.1938
     54  CA         4.1410  -13.2200   14.5600 C.3   192  SER192      0.2055
     55  C          3.3670  -14.4090   15.1500 C.2   192  SER192      0.2643
     56  O          3.0650  -15.3680   14.4300 O.2   192  SER192     -0.2714
     57  CB         5.5240  -13.0450   15.2200 C.3   192  SER192      0.2130
     58  OG         6.3170  -14.2180   15.1380 O.3   192  SER192     -0.2179
     59  N          3.0510  -14.3700   16.4400 N.am  193  TRP193     -0.1959
     60  CA         2.3790  -15.5190   17.0600 C.3   193  TRP193      0.1771
     61  C          1.6400  -15.2310   18.3710 C.2   193  TRP193      0.2620
     62  O          1.6820  -14.1240   18.8980 O.2   193  TRP193     -0.2715
     63  CB         3.3680  -16.6860   17.2400 C.3   193  TRP193      0.0590
     64  CG         4.5200  -16.4520   18.2000 C.ar  193  TRP193      0.0006
     65  CD1        5.7250  -15.8520   17.9290 C.ar  193  TRP193      0.0946
     66  CD2        4.5750  -16.8700   19.5650 C.ar  193  TRP193      0.0152
     67  NE1        6.5290  -15.8530   19.0670 N.ar  193  TRP193     -0.2442
     68  CE2        5.8420  -16.4680   20.0830 C.ar  193  TRP193      0.0810
     69  CE3        3.6690  -17.5310   20.4130 C.ar  193  TRP193      0.0012
     70  CZ2        6.2310  -16.7220   21.4140 C.ar  193  TRP193      0.0191
     71  CZ3        4.0530  -17.7780   21.7390 C.ar  193  TRP193      0.0001
     72  CH2        5.3250  -17.3750   22.2230 C.ar  193  TRP193      0.0015
     73  N          0.9240  -16.2460   18.8580 N.am  194  GLY194     -0.1954
     74  CA         0.2230  -16.1550   20.1370 C.3   194  GLY194      0.1869
     75  C         -0.4090  -17.4990   20.4400 C.2   194  GLY194      0.2309
     76  O         -0.4570  -18.3730   19.5760 O.2   194  GLY194     -0.2863
     77  N         -3.7500  -19.1030   20.8620 N.3   196  GLY196     -0.1210
     78  CA        -5.1150  -18.6940   20.5200 C.3   196  GLY196      0.1956
     79  C         -5.0980  -17.2130   20.1600 C.2   196  GLY196      0.2612
     80  O         -4.0480  -16.6840   19.7800 O.2   196  GLY196     -0.2717
     81  N         -6.2410  -16.5480   20.2830 N.am  197  CYS197     -0.1970
     82  CA        -6.3250  -15.0950   20.0310 C.3   197  CYS197      0.1712
     83  C         -7.1760  -14.4440   21.0950 C.2   197  CYS197      0.2296
     84  O         -8.2580  -14.9510   21.4270 O.2   197  CYS197     -0.2864
     85  CB        -6.9550  -14.8000   18.6590 C.3   197  CYS197      0.0983
     86  SG        -6.2360  -15.7120   17.3100 S.3   197  CYS197     -0.0798
     87  N         -2.5790  -14.1630   27.5130 N.3   202  LYS202     -0.1231
     88  CA        -1.8870  -14.6310   26.3170 C.3   202  LYS202      0.1678
     89  C         -1.9000  -13.5370   25.2500 C.2   202  LYS202      0.2434
     90  O         -2.6430  -13.6260   24.2670 O.2   202  LYS202     -0.2733
     91  CB        -2.5070  -15.9380   25.8080 C.3   202  LYS202      0.0284
     92  CG        -2.3030  -17.1330   26.7670 C.3   202  LYS202      0.0035
     93  CD        -0.8270  -17.5440   26.8420 C.3   202  LYS202      0.0206
     94  CE        -0.5950  -18.6710   27.8360 C.3   202  LYS202      0.1093
     95  NZ         0.8290  -19.1610   27.8280 N.3   202  LYS202     -0.1314
     96  N         -1.0710  -12.4900   25.4450 N.am  203  PRO203     -0.2718
     97  CA        -1.1010  -11.3600   24.5080 C.3   203  PRO203      0.1535
     98  C         -0.4190  -11.7220   23.1830 C.2   203  PRO203      0.2599
     99  O          0.1940  -12.7880   23.0770 O.2   203  PRO203     -0.2715
    100  CB        -0.3010  -10.2840   25.2460 C.3   203  PRO203      0.0310
    101  CG         0.7010  -11.0790   26.0790 C.3   203  PRO203      0.0237
    102  CD        -0.0790  -12.2960   26.5230 C.3   203  PRO203      0.0939
    103  N         -0.5380  -10.8470   22.1830 N.am  204  GLY204     -0.1941
    104  CA         0.1360  -11.0760   20.8980 C.3   204  GLY204      0.2014
    105  C          1.6470  -10.9650   21.0280 C.2   204  GLY204      0.2639
    106  O          2.1550  -10.1320   21.7900 O.2   204  GLY204     -0.2714
    107  N          2.3590  -11.8020   20.2810 N.am  205  VAL205     -0.1963
    108  CA         3.8250  -11.7470   20.2160 C.3   205  VAL205      0.1727
    109  C          4.2440  -11.2720   18.8310 C.2   205  VAL205      0.2616
    110  O          3.7280  -11.7490   17.8040 O.2   205  VAL205     -0.2715
    111  CB         4.4880  -13.1130   20.5560 C.3   205  VAL205      0.0290
    112  CG1        6.0170  -12.9470   20.7060 C.3   205  VAL205      0.0023
    113  CG2        3.9070  -13.6710   21.8350 C.3   205  VAL205      0.0023
    114  N          5.1910  -10.3310   18.8170 N.am  206  TYR206     -0.1974
    115  CA         5.5530   -9.5940   17.6150 C.3   206  TYR206      0.1639
    116  C          7.0490   -9.6200   17.3700 C.2   206  TYR206      0.2290
    117  O          7.8410   -9.5380   18.3080 O.2   206  TYR206     -0.2864
    118  CB         5.0540   -8.1420   17.7560 C.3   206  TYR206      0.0560
    119  CG         3.5500   -8.1170   17.8820 C.ar  206  TYR206     -0.0198
    120  CD1        2.7470   -8.1810   16.7470 C.ar  206  TYR206     -0.0009
    121  CD2        2.9310   -8.1160   19.1390 C.ar  206  TYR206     -0.0009
    122  CE1        1.3520   -8.1860   16.8390 C.ar  206  TYR206      0.0417
    123  CE2        1.5350   -8.1390   19.2470 C.ar  206  TYR206      0.0417
    124  CZ         0.7590   -8.1750   18.0900 C.ar  206  TYR206      0.1957
    125  OH        -0.6190   -8.2120   18.1760 O.3   206  TYR206     -0.2866
@<TRIPOS>BOND
     1     4     3    2
     2     3     2    1
     3    43    42    2
     4     1     2    1
     5     2     5    1
     6    42    41    1
     7     5     6    1
     8     8     6   ar
     9     8    10   ar
    10    44    41    1
    11    44    45    1
    12    40    41    1
    13     6     7   ar
    14    10     9   ar
    15    34    33    2
    16    33    32    1
    17     7     9   ar
    18    35    32    1
    19    35    36    1
    20    32    31    1
    21    49    48    2
    22    36    37    1
    23    28    27    2
    24    50    52    1
    25    50    47    1
    26    50    51    1
    27    46    47    1
    28    48    47    1
    29    48    53   am
    30    31    27   am
    31    27    26    1
    32    37    39   am
    33    37    38    2
    34    56    55    2
    35    54    53    1
    36    54    55    1
    37    54    57    1
    38    26    25    1
    39    26    29    1
    40    58    57    1
    41    55    59   am
    42    25    21   am
    43    29    30    1
    44    30    86    1
    45    23    20    1
    46    23    24    1
    47    20    21    1
    48    20    19    1
    49    21    22    2
    50    59    60    1
    51   120   122   ar
    52   120   119   ar
    53   122   124   ar
    54    60    63    1
    55    60    61    1
    56    63    64    1
    57    86    85    1
    58   116   115    1
    59   116   117    2
    60   115   118    1
    61   115   114    1
    62    14    13    2
    63    19    13   am
    64   118   119    1
    65   110   109    2
    66   119   121   ar
    67    65    64   ar
    68    65    67   ar
    69   124   125    1
    70   124   123   ar
    71    64    66   ar
    72    13    12    1
    73    61    73   am
    74    61    62    2
    75    85    82    1
    76   114   109   am
    77   109   108    1
    78    73    74    1
    79    67    68   ar
    80   121   123   ar
    81    66    68   ar
    82    66    69   ar
    83    76    75    2
    84    80    79    2
    85    12    11    1
    86    12    15    1
    87    82    81    1
    88    82    83    1
    89    68    70   ar
    90    17    16   ar
    91    74    75    1
    92    79    81   am
    93    79    78    1
    94   108   107    1
    95   108   111    1
    96   107   105   am
    97    69    71   ar
    98    15    16    1
    99    16    18   ar
   100    78    77    1
   101   111   112    1
   102   111   113    1
   103   104   105    1
   104   104   103    1
   105   105   106    2
   106    83    84    2
   107    70    72   ar
   108    71    72   ar
   109   103    98   am
   110    99    98    2
   111    98    97    1
   112    90    89    2
   113    97   100    1
   114    97    96    1
   115   100   101    1
   116    89    96   am
   117    89    88    1
   118    96   102    1
   119    91    88    1
   120    91    92    1
   121   101   102    1
   122    88    87    1
   123    92    93    1
   124    93    94    1
   125    95    94    1
