@<TRIPOS>MOLECULE
tmp/3a7wA00.pdb
 134 132 0 0 0
SMALL
GASTEIGER

@<TRIPOS>ATOM
      1  N         -1.7060  -13.5290    4.2830 N.3    25  CYS25      -0.1235
      2  CA        -0.8430  -12.8180    5.2320 C.3    25  CYS25       0.1677
      3  C         -0.8710  -11.3280    4.9680 C.2    25  CYS25       0.2270
      4  O         -1.1850  -10.8830    3.8510 O.2    25  CYS25      -0.2867
      5  CB         0.6160  -13.3170    5.1360 C.3    25  CYS25       0.0956
      6  SG         1.0180  -14.7390    6.2090 S.3    25  CYS25      -0.0801
      7  N          7.2180  -16.8040    8.6650 N.3    40  HIS40      -0.1241
      8  CA         6.2370  -17.9110    8.6470 C.3    40  HIS40       0.1621
      9  C          5.1580  -17.7330    7.5610 C.2    40  HIS40       0.2264
     10  O          4.3370  -18.6360    7.3340 O.2    40  HIS40      -0.2867
     11  CB         5.6490  -18.1750   10.0370 C.3    40  HIS40       0.0745
     12  CG         4.5140  -17.2730   10.4150 C.ar   40  HIS40       0.0817
     13  ND1        4.6740  -16.1690   11.2280 N.ar   40  HIS40      -0.2268
     14  CD2        3.1900  -17.3390   10.1250 C.ar   40  HIS40       0.1154
     15  CE1        3.4990  -15.5860   11.4090 C.ar   40  HIS40       0.1986
     16  NE2        2.5810  -16.2800   10.7570 N.ar   40  HIS40      -0.2212
     17  N         -6.8940   -8.3580   20.2560 N.3   171  ASP171     -0.1225
     18  CA        -5.6520   -9.0180   19.8260 C.3   171  ASP171      0.1805
     19  C         -5.6120   -9.1110   18.3040 C.2   171  ASP171      0.2598
     20  O         -6.6260   -8.9000   17.6370 O.2   171  ASP171     -0.2718
     21  CB        -5.6240  -10.4460   20.4030 C.3   171  ASP171      0.1424
     22  CG        -4.2110  -11.0650   20.4780 C.2   171  ASP171      0.3668
     23  OD1       -3.1860  -10.4270   20.1210 O.co2 171  ASP171     -0.2456
     24  OD2       -4.1510  -12.2360   20.9110 O.co2 171  ASP171     -0.2456
     25  N         -4.4380   -9.4080   17.7540 N.am  172  SER172     -0.1938
     26  CA        -4.3610   -9.8850   16.3780 C.3   172  SER172      0.2055
     27  C         -4.6830  -11.3890   16.3740 C.2   172  SER172      0.2643
     28  O         -4.8530  -12.0020   17.4380 O.2   172  SER172     -0.2714
     29  CB        -2.9920   -9.5830   15.7460 C.3   172  SER172      0.2130
     30  OG        -1.9320  -10.1400   16.5120 O.3   172  SER172     -0.2179
     31  N         -4.7770  -11.9810   15.1860 N.am  173  CYS173     -0.1953
     32  CA        -5.1890  -13.3700   15.0790 C.3   173  CYS173      0.1843
     33  C         -4.7200  -13.9760   13.7520 C.2   173  CYS173      0.2625
     34  O         -4.0810  -13.3010   12.9480 O.2   173  CYS173     -0.2714
     35  CB        -6.7190  -13.4470   15.2210 C.3   173  CYS173      0.0997
     36  SG        -7.3870  -15.0690   15.6380 S.3   173  CYS173     -0.0797
     37  N         -5.0260  -15.2590   13.5490 N.am  174  GLN174     -0.1963
     38  CA        -4.7850  -15.9460   12.2820 C.3   174  GLN174      0.1733
     39  C         -5.2140  -15.0800   11.0940 C.2   174  GLN174      0.2616
     40  O         -6.3280  -14.5390   11.0810 O.2   174  GLN174     -0.2715
     41  CB        -5.5710  -17.2570   12.2580 C.3   174  GLN174      0.0408
     42  CG        -4.8370  -18.4600   12.8480 C.3   174  GLN174      0.0908
     43  CD        -4.6780  -18.4440   14.3720 C.2   174  GLN174      0.2608
     44  OE1       -5.5240  -17.9290   15.1090 O.2   174  GLN174     -0.2717
     45  NE2       -3.5970  -19.0590   14.8470 N.am  174  GLN174     -0.0878
     46  N         -4.3410  -14.9540   10.1010 N.am  175  GLY175     -0.1955
     47  CA        -4.6590  -14.1250    8.9390 C.3   175  GLY175      0.1869
     48  C         -4.0860  -12.7150    9.0310 C.2   175  GLY175      0.2309
     49  O         -3.9560  -12.0370    8.0190 O.2   175  GLY175     -0.2863
     50  N         -1.1080  -12.3920   10.3750 N.3   177  SER177     -0.1217
     51  CA         0.3080  -12.7650   10.2910 C.3   177  SER177      0.1889
     52  C          1.0620  -11.9250    9.2930 C.2   177  SER177      0.2288
     53  O          0.6090  -11.7480    8.1570 O.2   177  SER177     -0.2866
     54  CB         0.4240  -14.2150    9.8290 C.3   177  SER177      0.2089
     55  OG         0.0540  -15.0930   10.8600 O.3   177  SER177     -0.2183
     56  N          3.2540   -9.0100   13.0520 N.3   191  VAL191     -0.1231
     57  CA         2.3660  -10.0090   13.6620 C.3   191  VAL191      0.1692
     58  C          3.0080  -11.3890   13.5070 C.2   191  VAL191      0.2593
     59  O          3.2250  -11.8620   12.3860 O.2   191  VAL191     -0.2718
     60  CB         0.9780  -10.0200   13.0060 C.3   191  VAL191      0.0266
     61  CG1        0.0850  -11.0980   13.6540 C.3   191  VAL191      0.0020
     62  CG2        0.3320   -8.6340   13.0860 C.3   191  VAL191      0.0020
     63  N          3.3160  -12.0260   14.6370 N.am  192  SER192     -0.1938
     64  CA         4.0980  -13.2720   14.6100 C.3   192  SER192      0.2055
     65  C          3.3320  -14.4810   15.1680 C.2   192  SER192      0.2643
     66  O          3.0660  -15.4390   14.4370 O.2   192  SER192     -0.2714
     67  CB         5.4540  -13.0850   15.3190 C.3   192  SER192      0.2130
     68  OG         6.2920  -14.2290   15.2210 O.3   192  SER192     -0.2179
     69  N          2.9980  -14.4520   16.4540 N.am  193  TRP193     -0.1959
     70  CA         2.3280  -15.6080   17.0650 C.3   193  TRP193      0.1771
     71  C          1.5990  -15.3070   18.3750 C.2   193  TRP193      0.2620
     72  O          1.6630  -14.1970   18.8940 O.2   193  TRP193     -0.2715
     73  CB         3.3110  -16.7740   17.2510 C.3   193  TRP193      0.0590
     74  CG         4.4620  -16.5340   18.2260 C.ar  193  TRP193      0.0006
     75  CD1        5.6650  -15.9270   17.9580 C.ar  193  TRP193      0.0946
     76  CD2        4.5220  -16.9500   19.6000 C.ar  193  TRP193      0.0152
     77  NE1        6.4660  -15.9250   19.0950 N.ar  193  TRP193     -0.2442
     78  CE2        5.7900  -16.5470   20.1100 C.ar  193  TRP193      0.0810
     79  CE3        3.6260  -17.6170   20.4540 C.ar  193  TRP193      0.0012
     80  CZ2        6.1850  -16.7950   21.4380 C.ar  193  TRP193      0.0191
     81  CZ3        4.0150  -17.8530   21.7770 C.ar  193  TRP193      0.0001
     82  CH2        5.2850  -17.4480   22.2500 C.ar  193  TRP193      0.0015
     83  N          0.8680  -16.3070   18.8720 N.am  194  GLY194     -0.1940
     84  CA         0.1670  -16.1890   20.1420 C.3   194  GLY194      0.2014
     85  C         -0.5360  -17.5020   20.4140 C.2   194  GLY194      0.2640
     86  O         -0.6730  -18.3340   19.5190 O.2   194  GLY194     -0.2714
     87  N         -0.9840  -17.6870   21.6480 N.am  195  SER195     -0.1935
     88  CA        -1.7750  -18.8520   21.9980 C.3   195  SER195      0.2055
     89  C         -3.2530  -18.5240   21.8060 C.2   195  SER195      0.2644
     90  O         -3.8290  -17.7510   22.5760 O.2   195  SER195     -0.2714
     91  CB        -1.4990  -19.2590   23.4440 C.3   195  SER195      0.2130
     92  OG        -2.3820  -20.2950   23.8170 O.3   195  SER195     -0.2179
     93  N         -3.8610  -19.0890   20.7650 N.am  196  GLY196     -0.1939
     94  CA        -5.2240  -18.6890   20.3760 C.3   196  GLY196      0.2014
     95  C         -5.2110  -17.2050   20.0200 C.2   196  GLY196      0.2639
     96  O         -4.1830  -16.6880   19.5810 O.2   196  GLY196     -0.2714
     97  N         -6.3360  -16.5250   20.2110 N.am  197  CYS197     -0.1967
     98  CA        -6.4220  -15.0770   19.9570 C.3   197  CYS197      0.1712
     99  C         -7.2780  -14.4180   21.0090 C.2   197  CYS197      0.2296
    100  O         -8.3780  -14.8960   21.3030 O.2   197  CYS197     -0.2864
    101  CB        -7.0580  -14.8010   18.5860 C.3   197  CYS197      0.0983
    102  SG        -6.2930  -15.6640   17.2380 S.3   197  CYS197     -0.0798
    103  N         -2.7240  -14.1300   27.4460 N.3   202  LYS202     -0.1245
    104  CA        -2.0210  -14.5890   26.2530 C.3   202  LYS202      0.1561
    105  C         -2.0240  -13.4970   25.1960 C.2   202  LYS202      0.2260
    106  O         -2.7420  -13.5980   24.2010 O.2   202  LYS202     -0.2867
    107  CB        -2.6300  -15.8940   25.7260 C.3   202  LYS202      0.0271
    108  CG        -2.4620  -17.0840   26.6940 C.3   202  LYS202      0.0035
    109  CD        -0.9960  -17.5050   26.7990 C.3   202  LYS202      0.0206
    110  CE        -0.7820  -18.5990   27.8320 C.3   202  LYS202      0.1093
    111  NZ         0.6500  -19.0580   27.8390 N.3   202  LYS202     -0.1314
    112  N         -0.6480  -10.8800   22.1250 N.3   204  GLY204     -0.1210
    113  CA         0.0580  -11.1310   20.8670 C.3   204  GLY204      0.1956
    114  C          1.5690  -11.0130   21.0120 C.2   204  GLY204      0.2612
    115  O          2.0740  -10.1710   21.7720 O.2   204  GLY204     -0.2717
    116  N          2.2910  -11.8520   20.2760 N.am  205  VAL205     -0.1965
    117  CA         3.7520  -11.7810   20.2280 C.3   205  VAL205      0.1727
    118  C          4.1580  -11.3140   18.8400 C.2   205  VAL205      0.2616
    119  O          3.6120  -11.7850   17.8220 O.2   205  VAL205     -0.2715
    120  CB         4.4180  -13.1410   20.5770 C.3   205  VAL205      0.0290
    121  CG1        5.9530  -12.9800   20.7260 C.3   205  VAL205      0.0023
    122  CG2        3.8300  -13.6940   21.8600 C.3   205  VAL205      0.0023
    123  N          5.1070  -10.3770   18.8190 N.am  206  TYR206     -0.1974
    124  CA         5.4830   -9.6450   17.6130 C.3   206  TYR206      0.1639
    125  C          6.9840   -9.6700   17.3870 C.2   206  TYR206      0.2290
    126  O          7.7710   -9.5840   18.3330 O.2   206  TYR206     -0.2864
    127  CB         4.9700   -8.1900   17.7290 C.3   206  TYR206      0.0560
    128  CG         3.4660   -8.1700   17.8560 C.ar  206  TYR206     -0.0198
    129  CD1        2.6690   -8.2260   16.7240 C.ar  206  TYR206     -0.0009
    130  CD2        2.8420   -8.1560   19.1140 C.ar  206  TYR206     -0.0009
    131  CE1        1.2790   -8.2330   16.8140 C.ar  206  TYR206      0.0417
    132  CE2        1.4530   -8.1810   19.2190 C.ar  206  TYR206      0.0417
    133  CZ         0.6850   -8.2190   18.0610 C.ar  206  TYR206      0.1957
    134  OH        -0.6910   -8.2440   18.1440 O.3   206  TYR206     -0.2866
@<TRIPOS>BOND
     1     4     3    2
     2     1     2    1
     3     3     2    1
     4     5     2    1
     5     5     6    1
     6    10     9    2
     7     9     8    1
     8    49    48    2
     9    53    52    2
    10     8     7    1
    11     8    11    1
    12    47    48    1
    13    47    46    1
    14    52    51    1
    15    54    51    1
    16    54    55    1
    17    11    12    1
    18    46    39   am
    19    14    12   ar
    20    14    16   ar
    21    51    50    1
    22    12    13   ar
    23    16    15   ar
    24    40    39    2
    25    39    38    1
    26    13    15   ar
    27    41    38    1
    28    41    42    1
    29    38    37    1
    30    59    58    2
    31    42    43    1
    32    34    33    2
    33    60    62    1
    34    60    61    1
    35    60    57    1
    36    56    57    1
    37    58    57    1
    38    58    63   am
    39    37    33   am
    40    33    32    1
    41    43    45   am
    42    43    44    2
    43    66    65    2
    44    64    63    1
    45    64    65    1
    46    64    67    1
    47    32    31    1
    48    32    35    1
    49    65    69   am
    50    31    27   am
    51    68    67    1
    52    35    36    1
    53    36   102    1
    54    29    26    1
    55    29    30    1
    56    27    26    1
    57    27    28    2
    58    26    25    1
    59    69    70    1
    60   129   131   ar
    61   129   128   ar
    62   131   133   ar
    63    70    73    1
    64    70    71    1
    65   102   101    1
    66    73    74    1
    67   125   124    1
    68   125   126    2
    69   124   127    1
    70   124   123    1
    71    20    19    2
    72   127   128    1
    73    25    19   am
    74   119   118    2
    75   128   130   ar
    76    75    74   ar
    77    75    77   ar
    78   133   134    1
    79   133   132   ar
    80    74    76   ar
    81    19    18    1
    82    71    83   am
    83    71    72    2
    84   101    98    1
    85   123   118   am
    86   118   117    1
    87    83    84    1
    88    77    78   ar
    89   130   132   ar
    90    86    85    2
    91    96    95    2
    92    76    78   ar
    93    76    79   ar
    94    18    17    1
    95    18    21    1
    96    98    97    1
    97    98    99    1
    98    95    97   am
    99    95    94    1
   100    78    80   ar
   101    23    22   ar
   102    84    85    1
   103   117   116    1
   104   117   120    1
   105   116   114   am
   106    94    93    1
   107    21    22    1
   108    85    87   am
   109    79    81   ar
   110    22    24   ar
   111   120   121    1
   112   120   122    1
   113    93    89   am
   114   113   114    1
   115   113   112    1
   116    99   100    2
   117   114   115    2
   118    80    82   ar
   119    87    88    1
   120    81    82   ar
   121    89    88    1
   122    89    90    2
   123    88    91    1
   124    91    92    1
   125   106   105    2
   126   105   104    1
   127   107   104    1
   128   107   108    1
   129   104   103    1
   130   108   109    1
   131   109   110    1
   132   110   111    1
