@<TRIPOS>MOLECULE
tmp/3a7yA00.pdb
 157 156 0 0 0
SMALL
GASTEIGER

@<TRIPOS>ATOM
      1  N         -3.4840  -14.4840    2.3400 N.3    24  PHE24      -0.1227
      2  CA        -2.9610  -15.4160    3.3540 C.3    24  PHE24       0.1736
      3  C         -2.0780  -14.7900    4.4440 C.2    24  PHE24       0.2595
      4  O         -1.7430  -15.4530    5.4280 O.2    24  PHE24      -0.2718
      5  CB        -2.2370  -16.5910    2.6710 C.3    24  PHE24       0.0547
      6  CG        -0.9060  -16.2200    2.0860 C.ar   24  PHE24      -0.0202
      7  CD1        0.2550  -16.2720    2.8750 C.ar   24  PHE24      -0.0042
      8  CD2       -0.7980  -15.8300    0.7580 C.ar   24  PHE24      -0.0042
      9  CE1        1.5030  -15.9230    2.3420 C.ar   24  PHE24      -0.0003
     10  CE2        0.4360  -15.4930    0.2140 C.ar   24  PHE24      -0.0003
     11  CZ         1.5960  -15.5300    1.0190 C.ar   24  PHE24      -0.0000
     12  N         -1.7020  -13.5210    4.2590 N.am   25  CYS25      -0.1970
     13  CA        -0.8160  -12.8170    5.1920 C.3    25  CYS25       0.1712
     14  C         -0.8430  -11.3270    4.9160 C.2    25  CYS25       0.2296
     15  O         -1.1590  -10.8920    3.7960 O.2    25  CYS25      -0.2864
     16  CB         0.6390  -13.3230    5.0600 C.3    25  CYS25       0.0983
     17  SG         1.0570  -14.7420    6.1690 S.3    25  CYS25      -0.0798
     18  N          7.1950  -16.7990    8.6530 N.3    40  HIS40      -0.1241
     19  CA         6.2140  -17.9040    8.6070 C.3    40  HIS40       0.1621
     20  C          5.1550  -17.7140    7.5040 C.2    40  HIS40       0.2264
     21  O          4.3360  -18.6120    7.2560 O.2    40  HIS40      -0.2867
     22  CB         5.5970  -18.1800    9.9740 C.3    40  HIS40       0.0745
     23  CG         4.4910  -17.2370   10.3590 C.ar   40  HIS40       0.0817
     24  ND1        4.6890  -16.1660   11.2090 N.ar   40  HIS40      -0.2268
     25  CD2        3.1740  -17.2220   10.0350 C.ar   40  HIS40       0.1154
     26  CE1        3.5440  -15.5280   11.3880 C.ar   40  HIS40       0.1986
     27  NE2        2.6060  -16.1500   10.6890 N.ar   40  HIS40      -0.2212
     28  N        -13.9060  -14.0830    8.9820 N.3   131  TYR131     -0.1241
     29  CA       -12.9110  -13.2660    8.2970 C.3   131  TYR131      0.1605
     30  C        -13.5670  -12.0430    7.6920 C.2   131  TYR131      0.2264
     31  O        -14.5880  -12.1710    6.9970 O.2   131  TYR131     -0.2867
     32  CB       -12.1590  -14.0800    7.2500 C.3   131  TYR131      0.0534
     33  CG       -11.1830  -15.0250    7.9010 C.ar  131  TYR131     -0.0201
     34  CD1       -9.8470  -14.6730    8.0570 C.ar  131  TYR131     -0.0009
     35  CD2      -11.6070  -16.2530    8.4060 C.ar  131  TYR131     -0.0009
     36  CE1       -8.9440  -15.5330    8.6780 C.ar  131  TYR131      0.0417
     37  CE2      -10.7100  -17.1220    9.0250 C.ar  131  TYR131      0.0417
     38  CZ        -9.3860  -16.7490    9.1640 C.ar  131  TYR131      0.1957
     39  OH        -8.5070  -17.6100    9.7850 O.3   131  TYR131     -0.2866
     40  N         -6.8740   -8.3510   20.2740 N.3   171  ASP171     -0.1225
     41  CA        -5.6360   -9.0160   19.8330 C.3   171  ASP171      0.1805
     42  C         -5.5860   -9.0760   18.3040 C.2   171  ASP171      0.2598
     43  O         -6.6080   -8.8710   17.6380 O.2   171  ASP171     -0.2718
     44  CB        -5.6060  -10.4440   20.4030 C.3   171  ASP171      0.1424
     45  CG        -4.1920  -11.0800   20.4350 C.2   171  ASP171      0.3668
     46  OD1       -3.1810  -10.4450   20.0480 O.co2 171  ASP171     -0.2456
     47  OD2       -4.1230  -12.2540   20.8660 O.co2 171  ASP171     -0.2456
     48  N         -4.4010   -9.3420   17.7520 N.am  172  SER172     -0.1938
     49  CA        -4.3100   -9.8490   16.3820 C.3   172  SER172      0.2055
     50  C         -4.6580  -11.3510   16.3870 C.2   172  SER172      0.2643
     51  O         -4.8160  -11.9600   17.4590 O.2   172  SER172     -0.2714
     52  CB        -2.9250   -9.5810   15.7610 C.3   172  SER172      0.2130
     53  OG        -1.8760  -10.1270   16.5490 O.3   172  SER172     -0.2179
     54  N         -4.7820  -11.9460   15.2010 N.am  173  CYS173     -0.1953
     55  CA        -5.1920  -13.3450   15.1000 C.3   173  CYS173      0.1843
     56  C         -4.7000  -13.9760   13.7900 C.2   173  CYS173      0.2625
     57  O         -4.0260  -13.3190   12.9970 O.2   173  CYS173     -0.2714
     58  CB        -6.7190  -13.4310   15.2090 C.3   173  CYS173      0.0997
     59  SG        -7.3950  -15.0560   15.6450 S.3   173  CYS173     -0.0797
     60  N         -5.0180  -15.2600   13.5950 N.am  174  GLN174     -0.1963
     61  CA        -4.7940  -15.9620   12.3260 C.3   174  GLN174      0.1733
     62  C         -5.2070  -15.0860   11.1380 C.2   174  GLN174      0.2616
     63  O         -6.3070  -14.5200   11.1320 O.2   174  GLN174     -0.2715
     64  CB        -5.6380  -17.2400   12.2990 C.3   174  GLN174      0.0408
     65  CG        -5.0170  -18.4690   12.9500 C.3   174  GLN174      0.0908
     66  CD        -4.8650  -18.3950   14.4640 C.2   174  GLN174      0.2608
     67  OE1       -5.7810  -18.0070   15.1860 O.2   174  GLN174     -0.2717
     68  NE2       -3.7060  -18.8220   14.9520 N.am  174  GLN174     -0.0878
     69  N         -4.3420  -14.9770   10.1370 N.am  175  GLY175     -0.1955
     70  CA        -4.6620  -14.1480    8.9660 C.3   175  GLY175      0.1869
     71  C         -4.1040  -12.7340    9.0550 C.2   175  GLY175      0.2309
     72  O         -4.0140  -12.0360    8.0410 O.2   175  GLY175     -0.2863
     73  N         -1.0850  -12.4160   10.3770 N.3   177  SER177     -0.1217
     74  CA         0.3280  -12.8030   10.2780 C.3   177  SER177      0.1889
     75  C          1.0820  -11.9760    9.2760 C.2   177  SER177      0.2288
     76  O          0.6310  -11.8210    8.1310 O.2   177  SER177     -0.2866
     77  CB         0.4370  -14.2570    9.8080 C.3   177  SER177      0.2089
     78  OG        -0.0050  -15.1280   10.8110 O.3   177  SER177     -0.2183
     79  N          3.2670   -8.9880   13.0600 N.3   191  VAL191     -0.1231
     80  CA         2.3860  -10.0150   13.6620 C.3   191  VAL191      0.1692
     81  C          3.0190  -11.4010   13.4990 C.2   191  VAL191      0.2593
     82  O          3.2030  -11.8830   12.3710 O.2   191  VAL191     -0.2718
     83  CB         0.9770  -10.0170   13.0320 C.3   191  VAL191      0.0266
     84  CG1        0.0800  -11.0680   13.7130 C.3   191  VAL191      0.0020
     85  CG2        0.3310   -8.6050   13.0750 C.3   191  VAL191      0.0020
     86  N          3.3430  -12.0440   14.6250 N.am  192  SER192     -0.1938
     87  CA         4.1270  -13.2900   14.5810 C.3   192  SER192      0.2055
     88  C          3.3540  -14.4940   15.1410 C.2   192  SER192      0.2643
     89  O          3.0830  -15.4650   14.4060 O.2   192  SER192     -0.2714
     90  CB         5.4920  -13.1020   15.2690 C.3   192  SER192      0.2130
     91  OG         6.2920  -14.2800   15.2220 O.3   192  SER192     -0.2179
     92  N          2.9990  -14.4460   16.4250 N.am  193  TRP193     -0.1959
     93  CA         2.3170  -15.5960   17.0520 C.3   193  TRP193      0.1771
     94  C          1.5720  -15.2830   18.3560 C.2   193  TRP193      0.2620
     95  O          1.6230  -14.1630   18.8650 O.2   193  TRP193     -0.2715
     96  CB         3.2930  -16.7650   17.2590 C.3   193  TRP193      0.0590
     97  CG         4.4600  -16.5230   18.2300 C.ar  193  TRP193      0.0006
     98  CD1        5.6550  -15.9060   17.9560 C.ar  193  TRP193      0.0946
     99  CD2        4.5330  -16.9470   19.6020 C.ar  193  TRP193      0.0152
    100  NE1        6.4700  -15.9080   19.0930 N.ar  193  TRP193     -0.2442
    101  CE2        5.7980  -16.5360   20.1090 C.ar  193  TRP193      0.0810
    102  CE3        3.6430  -17.6220   20.4590 C.ar  193  TRP193      0.0012
    103  CZ2        6.2020  -16.7950   21.4330 C.ar  193  TRP193      0.0191
    104  CZ3        4.0480  -17.8790   21.7860 C.ar  193  TRP193      0.0001
    105  CH2        5.3190  -17.4650   22.2520 C.ar  193  TRP193      0.0015
    106  N          0.8630  -16.2920   18.8740 N.am  194  GLY194     -0.1940
    107  CA         0.1220  -16.1560   20.1350 C.3   194  GLY194      0.2014
    108  C         -0.5810  -17.4640   20.4230 C.2   194  GLY194      0.2640
    109  O         -0.7360  -18.2820   19.5230 O.2   194  GLY194     -0.2714
    110  N         -0.9680  -17.6320   21.6620 N.am  195  SER195     -0.1935
    111  CA        -1.7820  -18.7660   21.9850 C.3   195  SER195      0.2055
    112  C         -3.2840  -18.4860   21.7800 C.2   195  SER195      0.2644
    113  O         -3.8580  -17.7050   22.5150 O.2   195  SER195     -0.2714
    114  CB        -1.4430  -19.2800   23.3640 C.3   195  SER195      0.2130
    115  OG        -2.4980  -20.0440   23.7760 O.3   195  SER195     -0.2179
    116  N         -3.8850  -19.0940   20.7480 N.am  196  GLY196     -0.1939
    117  CA        -5.2260  -18.6920   20.3280 C.3   196  GLY196      0.2014
    118  C         -5.2020  -17.2030   19.9880 C.2   196  GLY196      0.2639
    119  O         -4.1660  -16.6810   19.5660 O.2   196  GLY196     -0.2714
    120  N         -6.3300  -16.5220   20.1650 N.am  197  CYS197     -0.1967
    121  CA        -6.3980  -15.0610   19.9610 C.3   197  CYS197      0.1712
    122  C         -7.2560  -14.4180   21.0200 C.2   197  CYS197      0.2296
    123  O         -8.3420  -14.9260   21.3470 O.2   197  CYS197     -0.2864
    124  CB        -7.0010  -14.7260   18.5860 C.3   197  CYS197      0.0983
    125  SG        -6.2960  -15.6630   17.2330 S.3   197  CYS197     -0.0798
    126  N         -2.7070  -14.1120   27.4790 N.3   202  LYS202     -0.1245
    127  CA        -2.0130  -14.5900   26.2830 C.3   202  LYS202      0.1561
    128  C         -2.0350  -13.4980   25.2190 C.2   202  LYS202      0.2260
    129  O         -2.7970  -13.5800   24.2520 O.2   202  LYS202     -0.2867
    130  CB        -2.6420  -15.8960   25.7780 C.3   202  LYS202      0.0271
    131  CG        -2.4660  -17.1070   26.7410 C.3   202  LYS202      0.0035
    132  CD        -0.9970  -17.5240   26.8330 C.3   202  LYS202      0.0206
    133  CE        -0.7620  -18.6630   27.8140 C.3   202  LYS202      0.1093
    134  NZ         0.6810  -19.1060   27.8120 N.3   202  LYS202     -0.1314
    135  N         -0.6330  -10.8750   22.1350 N.3   204  GLY204     -0.1210
    136  CA         0.0700  -11.1050   20.8750 C.3   204  GLY204      0.1956
    137  C          1.5720  -10.9840   21.0080 C.2   204  GLY204      0.2612
    138  O          2.0860  -10.1520   21.7800 O.2   204  GLY204     -0.2717
    139  N          2.2820  -11.8220   20.2580 N.am  205  VAL205     -0.1965
    140  CA         3.7420  -11.7770   20.2220 C.3   205  VAL205      0.1727
    141  C          4.1890  -11.3100   18.8460 C.2   205  VAL205      0.2616
    142  O          3.6970  -11.8000   17.8130 O.2   205  VAL205     -0.2715
    143  CB         4.3810  -13.1520   20.5620 C.3   205  VAL205      0.0290
    144  CG1        5.9130  -13.0280   20.6810 C.3   205  VAL205      0.0023
    145  CG2        3.7970  -13.6820   21.8510 C.3   205  VAL205      0.0023
    146  N          5.1210  -10.3600   18.8460 N.am  206  TYR206     -0.1974
    147  CA         5.4960   -9.6330   17.6430 C.3   206  TYR206      0.1639
    148  C          6.9930   -9.6680   17.3900 C.2   206  TYR206      0.2290
    149  O          7.7900   -9.6000   18.3270 O.2   206  TYR206     -0.2864
    150  CB         4.9870   -8.1780   17.7550 C.3   206  TYR206      0.0560
    151  CG         3.4760   -8.1510   17.8910 C.ar  206  TYR206     -0.0198
    152  CD1        2.6680   -8.1890   16.7620 C.ar  206  TYR206     -0.0009
    153  CD2        2.8630   -8.1480   19.1440 C.ar  206  TYR206     -0.0009
    154  CE1        1.2840   -8.1800   16.8520 C.ar  206  TYR206      0.0417
    155  CE2        1.4750   -8.1550   19.2550 C.ar  206  TYR206      0.0417
    156  CZ         0.6950   -8.1710   18.1010 C.ar  206  TYR206      0.1957
    157  OH        -0.6790   -8.1910   18.1760 O.3   206  TYR206     -0.2866
@<TRIPOS>BOND
     1    10     8   ar
     2    10    11   ar
     3     8     6   ar
     4    11     9   ar
     5     6     5    1
     6     6     7   ar
     7     1     2    1
     8     9     7   ar
     9     5     2    1
    10     2     3    1
    11    15    14    2
    12    12     3   am
    13    12    13    1
    14     3     4    2
    15    14    13    1
    16    16    13    1
    17    16    17    1
    18    31    30    2
    19    32    33    1
    20    32    29    1
    21    21    20    2
    22    20    19    1
    23    30    29    1
    24    33    34   ar
    25    33    35   ar
    26    72    71    2
    27    34    36   ar
    28    76    75    2
    29    29    28    1
    30    35    37   ar
    31    19    18    1
    32    19    22    1
    33    36    38   ar
    34    70    71    1
    35    70    69    1
    36    37    38   ar
    37    38    39    1
    38    75    74    1
    39    77    74    1
    40    77    78    1
    41    22    23    1
    42    25    23   ar
    43    25    27   ar
    44    69    62   am
    45    74    73    1
    46    23    24   ar
    47    27    26   ar
    48    63    62    2
    49    62    61    1
    50    24    26   ar
    51    64    61    1
    52    64    65    1
    53    61    60    1
    54    82    81    2
    55    65    66    1
    56    57    56    2
    57    83    85    1
    58    83    80    1
    59    83    84    1
    60    79    80    1
    61    81    80    1
    62    81    86   am
    63    60    56   am
    64    56    55    1
    65    89    88    2
    66    66    68   am
    67    66    67    2
    68    87    86    1
    69    87    88    1
    70    87    90    1
    71    55    54    1
    72    55    58    1
    73    88    92   am
    74    54    50   am
    75    58    59    1
    76    91    90    1
    77    59   125    1
    78    52    49    1
    79    52    53    1
    80    49    50    1
    81    49    48    1
    82    50    51    2
    83    92    93    1
    84   152   154   ar
    85   152   151   ar
    86   154   156   ar
    87    93    96    1
    88    93    94    1
    89   125   124    1
    90    96    97    1
    91   148   147    1
    92   148   149    2
    93    43    42    2
    94   147   150    1
    95   147   146    1
    96    48    42   am
    97   150   151    1
    98   142   141    2
    99   151   153   ar
   100    98    97   ar
   101    98   100   ar
   102   156   157    1
   103   156   155   ar
   104    97    99   ar
   105    42    41    1
   106    94    95    2
   107    94   106   am
   108   124   121    1
   109   146   141   am
   110   141   140    1
   111   106   107    1
   112   100   101   ar
   113   153   155   ar
   114   109   108    2
   115   119   118    2
   116    99   101   ar
   117    99   102   ar
   118    41    40    1
   119    41    44    1
   120   121   120    1
   121   121   122    1
   122   118   120   am
   123   118   117    1
   124    46    45   ar
   125   101   103   ar
   126   107   108    1
   127   140   139    1
   128   140   143    1
   129   139   137   am
   130   117   116    1
   131    44    45    1
   132   108   110   am
   133    45    47   ar
   134   102   104   ar
   135   143   144    1
   136   143   145    1
   137   116   112   am
   138   136   137    1
   139   136   135    1
   140   137   138    2
   141   122   123    2
   142   103   105   ar
   143   110   111    1
   144   112   111    1
   145   112   113    2
   146   104   105   ar
   147   111   114    1
   148   114   115    1
   149   129   128    2
   150   128   127    1
   151   130   127    1
   152   130   131    1
   153   127   126    1
   154   131   132    1
   155   132   133    1
   156   134   133    1
