@<TRIPOS>MOLECULE
tmp/3a7zA00.pdb
 145 144 0 0 0
SMALL
GASTEIGER

@<TRIPOS>ATOM
      1  N         -3.5110  -14.4590    2.3600 N.3    24  PHE24      -0.1227
      2  CA        -2.9980  -15.3780    3.3860 C.3    24  PHE24       0.1736
      3  C         -2.1360  -14.7380    4.4800 C.2    24  PHE24       0.2595
      4  O         -1.8410  -15.3880    5.4930 O.2    24  PHE24      -0.2718
      5  CB        -2.2560  -16.5640    2.7430 C.3    24  PHE24       0.0547
      6  CG        -0.9350  -16.1940    2.1560 C.ar   24  PHE24      -0.0202
      7  CD1        0.2150  -16.2180    2.9480 C.ar   24  PHE24      -0.0042
      8  CD2       -0.8330  -15.8130    0.8240 C.ar   24  PHE24      -0.0042
      9  CE1        1.4500  -15.8580    2.4200 C.ar   24  PHE24      -0.0003
     10  CE2        0.3830  -15.4710    0.2840 C.ar   24  PHE24      -0.0003
     11  CZ         1.5400  -15.4780    1.0920 C.ar   24  PHE24      -0.0000
     12  N         -1.7250  -13.4820    4.2670 N.am   25  CYS25      -0.1970
     13  CA        -0.8440  -12.7820    5.2100 C.3    25  CYS25       0.1712
     14  C         -0.8670  -11.2970    4.9330 C.2    25  CYS25       0.2296
     15  O         -1.1890  -10.8700    3.8130 O.2    25  CYS25      -0.2864
     16  CB         0.6100  -13.2870    5.0860 C.3    25  CYS25       0.0983
     17  SG         1.0170  -14.7120    6.1860 S.3    25  CYS25      -0.0798
     18  N          7.1930  -16.7910    8.6840 N.3    40  HIS40      -0.1241
     19  CA         6.2030  -17.8780    8.6350 C.3    40  HIS40       0.1621
     20  C          5.1430  -17.6780    7.5310 C.2    40  HIS40       0.2264
     21  O          4.3370  -18.5780    7.2590 O.2    40  HIS40      -0.2867
     22  CB         5.5950  -18.1620   10.0080 C.3    40  HIS40       0.0745
     23  CG         4.5720  -17.1610   10.4550 C.ar   40  HIS40       0.0817
     24  ND1        3.2380  -17.2470   10.1040 N.ar   40  HIS40      -0.2268
     25  CD2        4.6800  -16.0810   11.2670 C.ar   40  HIS40       0.1154
     26  CE1        2.5720  -16.2540   10.6690 C.ar   40  HIS40       0.1986
     27  NE2        3.4260  -15.5300   11.3790 N.ar   40  HIS40      -0.2212
     28  N         -6.9040   -8.3310   20.2580 N.3   171  ASP171     -0.1225
     29  CA        -5.6630   -8.9820   19.8030 C.3   171  ASP171      0.1805
     30  C         -5.6170   -9.0480   18.2660 C.2   171  ASP171      0.2598
     31  O         -6.6290   -8.8270   17.5910 O.2   171  ASP171     -0.2718
     32  CB        -5.6210  -10.4090   20.3790 C.3   171  ASP171      0.1424
     33  CG        -4.2080  -11.0330   20.4150 C.2   171  ASP171      0.3668
     34  OD1       -3.2020  -10.3830   20.0290 O.co2 171  ASP171     -0.2456
     35  OD2       -4.1320  -12.2120   20.8430 O.co2 171  ASP171     -0.2456
     36  N         -4.4410   -9.3380   17.7170 N.am  172  SER172     -0.1938
     37  CA        -4.3650   -9.8300   16.3450 C.3   172  SER172      0.2055
     38  C         -4.6920  -11.3370   16.3500 C.2   172  SER172      0.2643
     39  O         -4.8600  -11.9500   17.4200 O.2   172  SER172     -0.2714
     40  CB        -2.9860   -9.5450   15.7200 C.3   172  SER172      0.2130
     41  OG        -1.9260  -10.0680   16.5140 O.3   172  SER172     -0.2179
     42  N         -4.7860  -11.9350   15.1650 N.am  173  CYS173     -0.1953
     43  CA        -5.2000  -13.3270   15.0670 C.3   173  CYS173      0.1843
     44  C         -4.7200  -13.9310   13.7480 C.2   173  CYS173      0.2625
     45  O         -4.0910  -13.2370   12.9400 O.2   173  CYS173     -0.2714
     46  CB        -6.7320  -13.3940   15.1820 C.3   173  CYS173      0.0997
     47  SG        -7.4080  -15.0170   15.6180 S.3   173  CYS173     -0.0797
     48  N         -5.0110  -15.2200   13.5460 N.am  174  GLN174     -0.1963
     49  CA        -4.7690  -15.9120   12.2770 C.3   174  GLN174      0.1733
     50  C         -5.2330  -15.0530   11.0990 C.2   174  GLN174      0.2616
     51  O         -6.3610  -14.5330   11.1120 O.2   174  GLN174     -0.2715
     52  CB        -5.5470  -17.2300   12.2550 C.3   174  GLN174      0.0408
     53  CG        -4.8230  -18.4210   12.8520 C.3   174  GLN174      0.0908
     54  CD        -4.7470  -18.4460   14.3820 C.2   174  GLN174      0.2608
     55  OE1       -5.6630  -18.0210   15.0890 O.2   174  GLN174     -0.2717
     56  NE2       -3.6490  -18.9980   14.8930 N.am  174  GLN174     -0.0878
     57  N         -4.3780  -14.9040   10.0910 N.am  175  GLY175     -0.1955
     58  CA        -4.7290  -14.0700    8.9290 C.3   175  GLY175      0.1869
     59  C         -4.1340  -12.6700    9.0170 C.2   175  GLY175      0.2309
     60  O         -4.0090  -11.9880    8.0050 O.2   175  GLY175     -0.2863
     61  N         -1.1290  -12.3750   10.3650 N.3   177  SER177     -0.1217
     62  CA         0.2890  -12.7530   10.2950 C.3   177  SER177      0.1889
     63  C          1.0450  -11.9280    9.2930 C.2   177  SER177      0.2288
     64  O          0.5880  -11.7740    8.1540 O.2   177  SER177     -0.2866
     65  CB         0.4140  -14.2130    9.8570 C.3   177  SER177      0.2089
     66  OG        -0.0330  -15.0550   10.8750 O.3   177  SER177     -0.2183
     67  N          3.2310   -8.9340   13.0530 N.3   191  VAL191     -0.1231
     68  CA         2.3560   -9.9530   13.6630 C.3   191  VAL191      0.1692
     69  C          3.0060  -11.3360   13.5080 C.2   191  VAL191      0.2593
     70  O          3.2270  -11.8170   12.3830 O.2   191  VAL191     -0.2718
     71  CB         0.9550   -9.9490   13.0380 C.3   191  VAL191      0.0266
     72  CG1        0.0520  -11.0120   13.7100 C.3   191  VAL191      0.0020
     73  CG2        0.3160   -8.5390   13.1050 C.3   191  VAL191      0.0020
     74  N          3.3080  -11.9780   14.6370 N.am  192  SER192     -0.1938
     75  CA         4.0930  -13.2270   14.5940 C.3   192  SER192      0.2055
     76  C          3.3190  -14.4280   15.1730 C.2   192  SER192      0.2643
     77  O          3.0200  -15.3850   14.4450 O.2   192  SER192     -0.2714
     78  CB         5.4600  -13.0210   15.2650 C.3   192  SER192      0.2130
     79  OG         6.2660  -14.1920   15.2470 O.3   192  SER192     -0.2179
     80  N          2.9870  -14.3930   16.4630 N.am  193  TRP193     -0.1959
     81  CA         2.3060  -15.5490   17.0800 C.3   193  TRP193      0.1771
     82  C          1.5790  -15.2390   18.3880 C.2   193  TRP193      0.2620
     83  O          1.6210  -14.1150   18.8850 O.2   193  TRP193     -0.2715
     84  CB         3.2770  -16.7260   17.2650 C.3   193  TRP193      0.0590
     85  CG         4.4200  -16.5000   18.2380 C.ar  193  TRP193      0.0006
     86  CD1        5.6220  -15.8780   17.9780 C.ar  193  TRP193      0.0946
     87  CD2        4.4780  -16.9250   19.6070 C.ar  193  TRP193      0.0152
     88  NE1        6.4210  -15.8780   19.1190 N.ar  193  TRP193     -0.2442
     89  CE2        5.7450  -16.5190   20.1260 C.ar  193  TRP193      0.0810
     90  CE3        3.5860  -17.6100   20.4520 C.ar  193  TRP193      0.0012
     91  CZ2        6.1390  -16.7820   21.4490 C.ar  193  TRP193      0.0191
     92  CZ3        3.9780  -17.8680   21.7770 C.ar  193  TRP193      0.0001
     93  CH2        5.2450  -17.4590   22.2560 C.ar  193  TRP193      0.0015
     94  N          0.8710  -16.2460   18.9040 N.am  194  GLY194     -0.1940
     95  CA         0.1830  -16.1270   20.1950 C.3   194  GLY194      0.2014
     96  C         -0.5330  -17.4310   20.4610 C.2   194  GLY194      0.2640
     97  O         -0.6780  -18.2590   19.5570 O.2   194  GLY194     -0.2714
     98  N         -0.9830  -17.6200   21.6950 N.am  195  SER195     -0.1935
     99  CA        -1.7790  -18.7910   22.0260 C.3   195  SER195      0.2055
    100  C         -3.2590  -18.4640   21.8190 C.2   195  SER195      0.2644
    101  O         -3.8440  -17.6720   22.5780 O.2   195  SER195     -0.2714
    102  CB        -1.5010  -19.2310   23.4650 C.3   195  SER195      0.2130
    103  OG        -2.5190  -20.1240   23.9080 O.3   195  SER195     -0.2179
    104  N         -3.8570  -19.0370   20.7740 N.am  196  GLY196     -0.1939
    105  CA        -5.2080  -18.6400   20.3660 C.3   196  GLY196      0.2014
    106  C         -5.1940  -17.1590   20.0040 C.2   196  GLY196      0.2639
    107  O         -4.1490  -16.6320   19.5860 O.2   196  GLY196     -0.2714
    108  N         -6.3390  -16.4910   20.1510 N.am  197  CYS197     -0.1967
    109  CA        -6.4230  -15.0300   19.9450 C.3   197  CYS197      0.1712
    110  C         -7.2730  -14.3880   21.0010 C.2   197  CYS197      0.2296
    111  O         -8.3700  -14.8770   21.3070 O.2   197  CYS197     -0.2864
    112  CB        -7.0350  -14.6920   18.5700 C.3   197  CYS197      0.0983
    113  SG        -6.3230  -15.6270   17.2250 S.3   197  CYS197     -0.0798
    114  N         -2.7440  -14.0690   27.4620 N.3   202  LYS202     -0.1245
    115  CA        -2.0440  -14.5490   26.2720 C.3   202  LYS202      0.1561
    116  C         -2.0650  -13.4610   25.2100 C.2   202  LYS202      0.2260
    117  O         -2.8270  -13.5510   24.2410 O.2   202  LYS202     -0.2867
    118  CB        -2.6570  -15.8670   25.7670 C.3   202  LYS202      0.0271
    119  CG        -2.4980  -17.0600   26.7580 C.3   202  LYS202      0.0035
    120  CD        -1.0410  -17.5250   26.8220 C.3   202  LYS202      0.0206
    121  CE        -0.8010  -18.6490   27.8300 C.3   202  LYS202      0.1093
    122  NZ         0.6400  -19.0890   27.8510 N.3   202  LYS202     -0.1314
    123  N         -0.6580  -10.8350   22.1330 N.3   204  GLY204     -0.1210
    124  CA         0.0560  -11.0720   20.8700 C.3   204  GLY204      0.1956
    125  C          1.5600  -10.9490   21.0210 C.2   204  GLY204      0.2612
    126  O          2.0500  -10.1300   21.8070 O.2   204  GLY204     -0.2717
    127  N          2.2920  -11.7680   20.2640 N.am  205  VAL205     -0.1965
    128  CA         3.7520  -11.7230   20.2430 C.3   205  VAL205      0.1727
    129  C          4.1810  -11.2680   18.8600 C.2   205  VAL205      0.2616
    130  O          3.6750  -11.7690   17.8410 O.2   205  VAL205     -0.2715
    131  CB         4.3930  -13.0910   20.5690 C.3   205  VAL205      0.0290
    132  CG1        5.9280  -12.9470   20.7560 C.3   205  VAL205      0.0023
    133  CG2        3.7640  -13.6770   21.8260 C.3   205  VAL205      0.0023
    134  N          5.1020  -10.3100   18.8460 N.am  206  TYR206     -0.1974
    135  CA         5.4670   -9.5890   17.6370 C.3   206  TYR206      0.1639
    136  C          6.9630   -9.6240   17.3880 C.2   206  TYR206      0.2290
    137  O          7.7540   -9.5380   18.3230 O.2   206  TYR206     -0.2864
    138  CB         4.9640   -8.1320   17.7580 C.3   206  TYR206      0.0560
    139  CG         3.4540   -8.1120   17.8880 C.ar  206  TYR206     -0.0198
    140  CD1        2.6540   -8.1680   16.7550 C.ar  206  TYR206     -0.0009
    141  CD2        2.8320   -8.0920   19.1480 C.ar  206  TYR206     -0.0009
    142  CE1        1.2600   -8.1660   16.8420 C.ar  206  TYR206      0.0417
    143  CE2        1.4350   -8.1120   19.2570 C.ar  206  TYR206      0.0417
    144  CZ         0.6620   -8.1530   18.0970 C.ar  206  TYR206      0.1957
    145  OH        -0.7120   -8.1730   18.1660 O.3   206  TYR206     -0.2866
@<TRIPOS>BOND
     1    10     8   ar
     2    10    11   ar
     3     8     6   ar
     4    11     9   ar
     5     6     5    1
     6     6     7   ar
     7     1     2    1
     8     9     7   ar
     9     5     2    1
    10     2     3    1
    11    15    14    2
    12    12     3   am
    13    12    13    1
    14     3     4    2
    15    14    13    1
    16    16    13    1
    17    16    17    1
    18    21    20    2
    19    20    19    1
    20    60    59    2
    21    64    63    2
    22    19    18    1
    23    19    22    1
    24    58    59    1
    25    58    57    1
    26    63    62    1
    27    65    62    1
    28    65    66    1
    29    22    23    1
    30    57    50   am
    31    24    23   ar
    32    24    26   ar
    33    62    61    1
    34    23    25   ar
    35    26    27   ar
    36    50    51    2
    37    50    49    1
    38    25    27   ar
    39    52    49    1
    40    52    53    1
    41    49    48    1
    42    70    69    2
    43    53    54    1
    44    45    44    2
    45    71    73    1
    46    71    68    1
    47    71    72    1
    48    67    68    1
    49    69    68    1
    50    69    74   am
    51    48    44   am
    52    44    43    1
    53    54    56   am
    54    54    55    2
    55    77    76    2
    56    75    74    1
    57    75    76    1
    58    75    78    1
    59    43    42    1
    60    43    46    1
    61    42    38   am
    62    76    80   am
    63    46    47    1
    64    79    78    1
    65    47   113    1
    66    40    37    1
    67    40    41    1
    68    37    38    1
    69    37    36    1
    70    38    39    2
    71    80    81    1
    72   140   142   ar
    73   140   139   ar
    74   142   144   ar
    75    81    84    1
    76    81    82    1
    77   113   112    1
    78    84    85    1
    79   136   135    1
    80   136   137    2
    81    31    30    2
    82   135   138    1
    83   135   134    1
    84    36    30   am
    85   138   139    1
    86   130   129    2
    87   139   141   ar
    88    86    85   ar
    89    86    88   ar
    90   144   145    1
    91   144   143   ar
    92    85    87   ar
    93    30    29    1
    94    82    83    2
    95    82    94   am
    96   112   109    1
    97   134   129   am
    98   129   128    1
    99    94    95    1
   100    88    89   ar
   101   141   143   ar
   102    97    96    2
   103   107   106    2
   104    87    89   ar
   105    87    90   ar
   106    29    28    1
   107    29    32    1
   108   109   108    1
   109   109   110    1
   110   106   108   am
   111   106   105    1
   112    34    33   ar
   113    89    91   ar
   114    95    96    1
   115   128   127    1
   116   128   131    1
   117   127   125   am
   118   105   104    1
   119    32    33    1
   120    33    35   ar
   121    90    92   ar
   122    96    98   am
   123   131   132    1
   124   131   133    1
   125   104   100   am
   126   124   125    1
   127   124   123    1
   128   110   111    2
   129   125   126    2
   130    91    93   ar
   131    98    99    1
   132    92    93   ar
   133   100    99    1
   134   100   101    2
   135    99   102    1
   136   102   103    1
   137   117   116    2
   138   116   115    1
   139   118   115    1
   140   118   119    1
   141   115   114    1
   142   119   120    1
   143   120   121    1
   144   121   122    1
