@<TRIPOS>MOLECULE
tmp/3a80A00.pdb
 132 130 0 0 0
SMALL
GASTEIGER

@<TRIPOS>ATOM
      1  N          7.1630  -15.6370    8.7960 N.3    40  HIS40      -0.1241
      2  CA         6.2230  -16.7690    8.8460 C.3    40  HIS40       0.1621
      3  C          5.1360  -16.6950    7.7570 C.2    40  HIS40       0.2264
      4  O          4.4090  -17.6660    7.5550 O.2    40  HIS40      -0.2867
      5  CB         5.6780  -17.0370   10.2550 C.3    40  HIS40       0.0745
      6  CG         4.4830  -16.2180   10.6380 C.ar   40  HIS40       0.0817
      7  ND1        4.5750  -15.0900   11.4310 N.ar   40  HIS40      -0.2268
      8  CD2        3.1620  -16.4060   10.3980 C.ar   40  HIS40       0.1154
      9  CE1        3.3620  -14.5970   11.6300 C.ar   40  HIS40       0.1986
     10  NE2        2.4860  -15.3820   11.0220 N.ar   40  HIS40      -0.2212
     11  N         10.0480  -18.0530   16.5100 N.3    81  LEU81      -0.1245
     12  CA         9.6480  -16.8400   15.7890 C.3    81  LEU81       0.1561
     13  C         10.5890  -15.6590   16.0460 C.2    81  LEU81       0.2260
     14  O         10.2330  -14.4970   15.7960 O.2    81  LEU81      -0.2867
     15  CB         8.1640  -16.4950   16.0220 C.3    81  LEU81       0.0270
     16  CG         7.1580  -17.5500   15.5060 C.3    81  LEU81       0.0019
     17  CD1        5.7400  -17.2020   15.9250 C.3    81  LEU81       0.0001
     18  CD2        7.2470  -17.7440   13.9710 C.3    81  LEU81       0.0001
     19  N         -7.1040   -6.8010   19.9850 N.3   171  ASP171     -0.1225
     20  CA        -5.8580   -7.4660   19.5640 C.3   171  ASP171      0.1805
     21  C         -5.8390   -7.6440   18.0540 C.2   171  ASP171      0.2598
     22  O         -6.8780   -7.5390   17.4010 O.2   171  ASP171     -0.2718
     23  CB        -5.7950   -8.8510   20.2320 C.3   171  ASP171      0.1424
     24  CG        -4.3840   -9.4440   20.3240 C.2   171  ASP171      0.3668
     25  OD1       -3.3580   -8.8430   19.9050 O.co2 171  ASP171     -0.2456
     26  OD2       -4.3150  -10.5780   20.8270 O.co2 171  ASP171     -0.2456
     27  N         -4.6550   -7.9100   17.5080 N.am  172  SER172     -0.1938
     28  CA        -4.5550   -8.4730   16.1600 C.3   172  SER172      0.2055
     29  C         -4.7760   -9.9880   16.2490 C.2   172  SER172      0.2643
     30  O         -4.9020  -10.5340   17.3520 O.2   172  SER172     -0.2714
     31  CB        -3.2160   -8.1150   15.4760 C.3   172  SER172      0.2130
     32  OG        -2.0710   -8.5520   16.2100 O.3   172  SER172     -0.2179
     33  N         -4.8360  -10.6530   15.0940 N.am  173  CYS173     -0.1953
     34  CA        -5.2320  -12.0720   15.0410 C.3   173  CYS173      0.1843
     35  C         -4.7320  -12.7530   13.7620 C.2   173  CYS173      0.2625
     36  O         -4.0890  -12.1130   12.9300 O.2   173  CYS173     -0.2714
     37  CB        -6.7570  -12.1900   15.1820 C.3   173  CYS173      0.0997
     38  SG        -7.3580  -13.8070   15.6960 S.3   173  CYS173     -0.0797
     39  N         -5.0050  -14.0520   13.6170 N.am  174  GLN174     -0.1977
     40  CA        -4.6890  -14.7660   12.3790 C.3   174  GLN174      0.1601
     41  C         -5.2580  -14.0080   11.1700 C.2   174  GLN174      0.2287
     42  O         -6.3930  -13.5150   11.1980 O.2   174  GLN174     -0.2864
     43  CB        -5.2300  -16.2040   12.4260 C.3   174  GLN174      0.0394
     44  CG        -4.3410  -17.2190   13.1920 C.3   174  GLN174      0.0908
     45  CD        -4.3290  -17.0470   14.7180 C.2   174  GLN174      0.2608
     46  OE1       -5.3030  -16.5880   15.3200 O.2   174  GLN174     -0.2717
     47  NE2       -3.2200  -17.4340   15.3430 N.am  174  GLN174     -0.0878
     48  N         -1.2860  -11.3020   10.3170 N.3   177  SER177     -0.1217
     49  CA         0.1510  -11.6120   10.3100 C.3   177  SER177      0.1889
     50  C          0.8750  -10.8810    9.1900 C.2   177  SER177      0.2288
     51  O          0.3960  -10.8570    8.0560 O.2   177  SER177     -0.2866
     52  CB         0.3800  -13.1150   10.0840 C.3   177  SER177      0.2089
     53  OG        -0.0840  -13.8900   11.1840 O.3   177  SER177     -0.2183
     54  N          3.0290   -7.6770   12.7280 N.3   191  VAL191     -0.1231
     55  CA         2.1400   -8.6460   13.4040 C.3   191  VAL191      0.1692
     56  C          2.8300  -10.0070   13.3190 C.2   191  VAL191      0.2593
     57  O          3.0270  -10.5130   12.2270 O.2   191  VAL191     -0.2718
     58  CB         0.7460   -8.7160   12.7630 C.3   191  VAL191      0.0266
     59  CG1       -0.1450   -9.7260   13.5380 C.3   191  VAL191      0.0020
     60  CG2        0.0770   -7.3150   12.7420 C.3   191  VAL191      0.0020
     61  N          3.1760  -10.5820   14.4730 N.am  192  SER192     -0.1938
     62  CA         3.9730  -11.8190   14.5080 C.3   192  SER192      0.2055
     63  C          3.2330  -12.9800   15.1710 C.2   192  SER192      0.2643
     64  O          2.9040  -13.9650   14.4950 O.2   192  SER192     -0.2714
     65  CB         5.3380  -11.5680   15.1710 C.3   192  SER192      0.2130
     66  OG         6.1620  -12.7300   15.2040 O.3   192  SER192     -0.2179
     67  N          2.9960  -12.8910   16.4850 N.am  193  TRP193     -0.1959
     68  CA         2.3640  -14.0140   17.1860 C.3   193  TRP193      0.1771
     69  C          1.6430  -13.6130   18.4690 C.2   193  TRP193      0.2620
     70  O          1.5230  -12.4200   18.7790 O.2   193  TRP193     -0.2715
     71  CB         3.3800  -15.1550   17.4310 C.3   193  TRP193      0.0590
     72  CG         4.5160  -14.8350   18.3430 C.ar  193  TRP193      0.0006
     73  CD1        5.6690  -14.1500   18.0240 C.ar  193  TRP193      0.0946
     74  CD2        4.6400  -15.2050   19.7220 C.ar  193  TRP193      0.0152
     75  NE1        6.5020  -14.0680   19.1370 N.ar  193  TRP193     -0.2442
     76  CE2        5.8910  -14.7010   20.1870 C.ar  193  TRP193      0.0810
     77  CE3        3.8150  -15.9070   20.6240 C.ar  193  TRP193      0.0012
     78  CZ2        6.3390  -14.8940   21.5110 C.ar  193  TRP193      0.0191
     79  CZ3        4.2640  -16.0830   21.9420 C.ar  193  TRP193      0.0001
     80  CH2        5.5060  -15.5720   22.3650 C.ar  193  TRP193      0.0015
     81  N          1.1580  -14.6180   19.1960 N.am  194  GLY194     -0.1940
     82  CA         0.3830  -14.3980   20.4110 C.3   194  GLY194      0.2014
     83  C         -0.4000  -15.6650   20.6860 C.2   194  GLY194      0.2640
     84  O         -0.6120  -16.4760   19.7720 O.2   194  GLY194     -0.2714
     85  N         -0.8180  -15.8530   21.9300 N.am  195  SER195     -0.1935
     86  CA        -1.6080  -17.0400   22.2680 C.3   195  SER195      0.2055
     87  C         -3.0750  -16.7310   22.0140 C.2   195  SER195      0.2644
     88  O         -3.6970  -15.9360   22.7490 O.2   195  SER195     -0.2714
     89  CB        -1.3850  -17.4730   23.7110 C.3   195  SER195      0.2130
     90  OG        -2.3200  -18.4950   24.0410 O.3   195  SER195     -0.2179
     91  N         -3.6140  -17.3350   20.9570 N.am  196  GLY196     -0.1939
     92  CA        -4.9640  -16.9980   20.4730 C.3   196  GLY196      0.2014
     93  C         -5.0000  -15.5230   20.0950 C.2   196  GLY196      0.2639
     94  O         -3.9740  -14.9680   19.7000 O.2   196  GLY196     -0.2714
     95  N         -6.1680  -14.8950   20.2460 N.am  197  CYS197     -0.1967
     96  CA        -6.3400  -13.4670   19.9650 C.3   197  CYS197      0.1712
     97  C         -7.2410  -12.8310   21.0090 C.2   197  CYS197      0.2296
     98  O         -8.2680  -13.4090   21.3870 O.2   197  CYS197     -0.2864
     99  CB        -6.9770  -13.2670   18.5870 C.3   197  CYS197      0.0983
    100  SG        -6.2080  -14.2380   17.3070 S.3   197  CYS197     -0.0798
    101  N         -2.7190  -12.2190   27.4630 N.3   202  LYS202     -0.1245
    102  CA        -2.0120  -12.7070   26.2850 C.3   202  LYS202      0.1561
    103  C         -2.0210  -11.6440   25.1680 C.2   202  LYS202      0.2260
    104  O         -2.7330  -11.7730   24.1640 O.2   202  LYS202     -0.2867
    105  CB        -2.5870  -14.0470   25.8060 C.3   202  LYS202      0.0271
    106  CG        -2.3700  -15.2110   26.7740 C.3   202  LYS202      0.0035
    107  CD        -0.8920  -15.5530   26.9530 C.3   202  LYS202      0.0206
    108  CE        -0.6800  -16.5890   28.0510 C.3   202  LYS202      0.1093
    109  NZ         0.7540  -16.9990   28.1350 N.3   202  LYS202     -0.1314
    110  N         -0.7030   -9.1890   22.0020 N.3   204  GLY204     -0.1210
    111  CA         0.0040   -9.4270   20.7560 C.3   204  GLY204      0.1956
    112  C          1.5110   -9.2760   20.8960 C.2   204  GLY204      0.2612
    113  O          2.0060   -8.3900   21.6320 O.2   204  GLY204     -0.2717
    114  N          2.2410  -10.1310   20.1700 N.am  205  VAL205     -0.1965
    115  CA         3.6890  -10.0620   20.1100 C.3   205  VAL205      0.1727
    116  C          4.1160   -9.6470   18.7030 C.2   205  VAL205      0.2616
    117  O          3.6160  -10.1750   17.6980 O.2   205  VAL205     -0.2715
    118  CB         4.3690  -11.3960   20.5280 C.3   205  VAL205      0.0290
    119  CG1        5.8660  -11.2040   20.6830 C.3   205  VAL205      0.0023
    120  CG2        3.8030  -11.8630   21.8690 C.3   205  VAL205      0.0023
    121  N          5.0500   -8.6990   18.6540 N.am  206  TYR206     -0.1974
    122  CA         5.3820   -8.0170   17.4100 C.3   206  TYR206      0.1639
    123  C          6.8780   -7.9860   17.1500 C.2   206  TYR206      0.2290
    124  O          7.6770   -7.7860   18.0700 O.2   206  TYR206     -0.2864
    125  CB         4.7980   -6.5930   17.4430 C.3   206  TYR206      0.0560
    126  CG         3.3030   -6.6210   17.5980 C.ar  206  TYR206     -0.0198
    127  CD1        2.4810   -6.7750   16.4740 C.ar  206  TYR206     -0.0009
    128  CD2        2.6940   -6.5390   18.8710 C.ar  206  TYR206     -0.0009
    129  CE1        1.0850   -6.8220   16.5950 C.ar  206  TYR206      0.0417
    130  CE2        1.2980   -6.5810   19.0010 C.ar  206  TYR206      0.0417
    131  CZ         0.5050   -6.7330   17.8510 C.ar  206  TYR206      0.1957
    132  OH        -0.8630   -6.7980   17.9510 O.3   206  TYR206     -0.2866
@<TRIPOS>BOND
     1     4     3    2
     2     3     2    1
     3    51    50    2
     4     1     2    1
     5     2     5    1
     6    50    49    1
     7    52    49    1
     8    52    53    1
     9     5     6    1
    10    49    48    1
    11     8     6   ar
    12     8    10   ar
    13     6     7   ar
    14    10     9   ar
    15    41    42    2
    16    41    40    1
    17     7     9   ar
    18    57    56    2
    19    40    43    1
    20    40    39    1
    21    43    44    1
    22    54    55    1
    23    60    58    1
    24    58    55    1
    25    58    59    1
    26    36    35    2
    27    44    45    1
    28    56    55    1
    29    56    61   am
    30    39    35   am
    31    35    34    1
    32    18    16    1
    33    61    62    1
    34    64    63    2
    35    62    63    1
    36    62    65    1
    37    45    46    2
    38    45    47   am
    39    34    33    1
    40    34    37    1
    41    33    29   am
    42    63    67   am
    43    65    66    1
    44    37    38    1
    45    31    28    1
    46    31    32    1
    47    16    17    1
    48    16    15    1
    49    38   100    1
    50    12    15    1
    51    12    13    1
    52    12    11    1
    53    14    13    2
    54    28    29    1
    55    28    27    1
    56    29    30    2
    57   127   129   ar
    58   127   126   ar
    59    67    68    1
    60   129   131   ar
    61   123   122    1
    62   123   124    2
    63    68    71    1
    64    68    69    1
    65   100    99    1
    66    22    21    2
    67   122   125    1
    68   122   121    1
    69    71    72    1
    70   125   126    1
    71    27    21   am
    72   126   128   ar
    73   117   116    2
    74   131   132    1
    75   131   130   ar
    76    73    72   ar
    77    73    75   ar
    78    21    20    1
    79    72    74   ar
    80    69    70    2
    81    69    81   am
    82    99    96    1
    83   121   116   am
    84   116   115    1
    85   128   130   ar
    86    75    76   ar
    87    81    82    1
    88    20    19    1
    89    20    23    1
    90    94    93    2
    91    74    76   ar
    92    74    77   ar
    93    84    83    2
    94    25    24   ar
    95    96    95    1
    96    96    97    1
    97    93    95   am
    98    93    92    1
    99   115   114    1
   100   115   118    1
   101   114   112   am
   102    76    78   ar
   103    23    24    1
   104    24    26   ar
   105    82    83    1
   106    92    91    1
   107   118   119    1
   108   118   120    1
   109    77    79   ar
   110    83    85   am
   111   111   112    1
   112   111   110    1
   113   112   113    2
   114    91    87   am
   115    97    98    2
   116    78    80   ar
   117    85    86    1
   118    79    80   ar
   119    87    86    1
   120    87    88    2
   121    86    89    1
   122    89    90    1
   123   104   103    2
   124   103   102    1
   125   105   102    1
   126   105   106    1
   127   102   101    1
   128   106   107    1
   129   107   108    1
   130   108   109    1
