@<TRIPOS>MOLECULE
tmp/3a86A00.pdb
 152 153 0 0 0
SMALL
GASTEIGER

@<TRIPOS>ATOM
      1  N         -3.7070  -13.9560    2.5200 N.3    24  PHE24      -0.1227
      2  CA        -3.1560  -14.7890    3.6020 C.3    24  PHE24       0.1736
      3  C         -2.3140  -14.0370    4.6430 C.2    24  PHE24       0.2595
      4  O         -2.0510  -14.5730    5.7350 O.2    24  PHE24      -0.2718
      5  CB        -2.3610  -15.9740    3.0290 C.3    24  PHE24       0.0547
      6  CG        -1.0670  -15.5790    2.3990 C.ar   24  PHE24      -0.0202
      7  CD1        0.0970  -15.4670    3.1800 C.ar   24  PHE24      -0.0042
      8  CD2       -0.9920  -15.2920    1.0310 C.ar   24  PHE24      -0.0042
      9  CE1        1.3030  -15.0880    2.6040 C.ar   24  PHE24      -0.0003
     10  CE2        0.2120  -14.9310    0.4470 C.ar   24  PHE24      -0.0003
     11  CZ         1.3680  -14.8110    1.2440 C.ar   24  PHE24      -0.0000
     12  N         -1.8960  -12.8120    4.3190 N.am   25  CYS25      -0.1970
     13  CA        -1.0970  -12.0170    5.2490 C.3    25  CYS25       0.1712
     14  C         -1.1490  -10.5450    4.8540 C.2    25  CYS25       0.2296
     15  O         -1.4910  -10.2030    3.7150 O.2    25  CYS25      -0.2864
     16  CB         0.3720  -12.4800    5.2410 C.3    25  CYS25       0.0983
     17  SG         0.7720  -13.8200    6.3950 S.3    25  CYS25      -0.0798
     18  N          7.1440  -15.6010    8.8030 N.3    40  HIS40      -0.1241
     19  CA         6.1780  -16.7250    8.8460 C.3    40  HIS40       0.1621
     20  C          5.0760  -16.6530    7.7690 C.2    40  HIS40       0.2264
     21  O          4.3160  -17.6170    7.5960 O.2    40  HIS40      -0.2867
     22  CB         5.6270  -16.9550   10.2620 C.3    40  HIS40       0.0745
     23  CG         4.4630  -16.0900   10.6350 C.ar   40  HIS40       0.0817
     24  ND1        4.5960  -14.9570   11.4080 N.ar   40  HIS40      -0.2268
     25  CD2        3.1350  -16.2450   10.4210 C.ar   40  HIS40       0.1154
     26  CE1        3.4030  -14.4230   11.6110 C.ar   40  HIS40       0.1986
     27  NE2        2.4990  -15.1910   11.0290 N.ar   40  HIS40      -0.2212
     28  N         -7.1170   -6.7500   19.9580 N.3   171  ASP171     -0.1225
     29  CA        -5.8620   -7.3840   19.5370 C.3   171  ASP171      0.1805
     30  C         -5.8420   -7.5400   18.0110 C.2   171  ASP171      0.2598
     31  O         -6.8720   -7.4210   17.3460 O.2   171  ASP171     -0.2718
     32  CB        -5.7880   -8.7750   20.2060 C.3   171  ASP171      0.1424
     33  CG        -4.3770   -9.3620   20.2900 C.2   171  ASP171      0.3668
     34  OD1       -3.3700   -8.7480   19.8510 O.co2 171  ASP171     -0.2456
     35  OD2       -4.2910  -10.4840   20.8280 O.co2 171  ASP171     -0.2456
     36  N         -4.6660   -7.8190   17.4640 N.am  172  SER172     -0.1938
     37  CA        -4.5650   -8.3710   16.1220 C.3   172  SER172      0.2055
     38  C         -4.8130   -9.8860   16.2110 C.2   172  SER172      0.2643
     39  O         -4.8970  -10.4300   17.3160 O.2   172  SER172     -0.2714
     40  CB        -3.1990   -8.0310   15.5040 C.3   172  SER172      0.2130
     41  OG        -2.1190   -8.5760   16.2590 O.3   172  SER172     -0.2179
     42  N         -4.9470  -10.5510   15.0610 N.am  173  CYS173     -0.1953
     43  CA        -5.3610  -11.9670   15.0190 C.3   173  CYS173      0.1843
     44  C         -4.8870  -12.6570   13.7340 C.2   173  CYS173      0.2625
     45  O         -4.2420  -12.0340   12.8960 O.2   173  CYS173     -0.2714
     46  CB        -6.8860  -12.0560   15.1770 C.3   173  CYS173      0.0997
     47  SG        -7.5200  -13.6520   15.7480 S.3   173  CYS173     -0.0797
     48  N         -5.1800  -13.9510   13.5970 N.am  174  GLN174     -0.1963
     49  CA        -4.8930  -14.6940   12.3680 C.3   174  GLN174      0.1733
     50  C         -5.3610  -13.9220   11.1410 C.2   174  GLN174      0.2616
     51  O         -6.4690  -13.3940   11.1250 O.2   174  GLN174     -0.2715
     52  CB        -5.5790  -16.0630   12.3980 C.3   174  GLN174      0.0408
     53  CG        -4.8640  -17.1130   13.2560 C.3   174  GLN174      0.0908
     54  CD        -4.9820  -16.8630   14.7610 C.2   174  GLN174      0.2608
     55  OE1       -6.0450  -16.5210   15.2700 O.2   174  GLN174     -0.2717
     56  NE2       -3.8810  -17.0510   15.4710 N.am  174  GLN174     -0.0878
     57  N         -4.5120  -13.8710   10.1230 N.am  175  GLY175     -0.1955
     58  CA        -4.8180  -13.1330    8.8920 C.3   175  GLY175      0.1869
     59  C         -4.2970  -11.7010    8.9050 C.2   175  GLY175      0.2309
     60  O         -4.1720  -11.0980    7.8490 O.2   175  GLY175     -0.2863
     61  N         -1.3320  -11.2440   10.2620 N.3   177  SER177     -0.1217
     62  CA         0.1080  -11.5300   10.2580 C.3   177  SER177      0.1889
     63  C          0.8520  -10.7920    9.1550 C.2   177  SER177      0.2288
     64  O          0.3900  -10.7400    8.0150 O.2   177  SER177     -0.2866
     65  CB         0.3460  -13.0200   10.0330 C.3   177  SER177      0.2089
     66  OG         0.0140  -13.7670   11.2000 O.3   177  SER177     -0.2183
     67  N          2.9900   -7.5880   12.7280 N.3   191  VAL191     -0.1231
     68  CA         2.1170   -8.5730   13.3970 C.3   191  VAL191      0.1692
     69  C          2.7910   -9.9480   13.3250 C.2   191  VAL191      0.2593
     70  O          2.9820  -10.4820   12.2300 O.2   191  VAL191     -0.2718
     71  CB         0.7220   -8.6280   12.7430 C.3   191  VAL191      0.0266
     72  CG1       -0.1700   -9.6640   13.4620 C.3   191  VAL191      0.0020
     73  CG2        0.0710   -7.2230   12.7210 C.3   191  VAL191      0.0020
     74  N          3.1240  -10.5110   14.4900 N.am  192  SER192     -0.1938
     75  CA         3.9240  -11.7550   14.5460 C.3   192  SER192      0.2055
     76  C          3.1760  -12.9210   15.1860 C.2   192  SER192      0.2643
     77  O          2.8650  -13.9090   14.5090 O.2   192  SER192     -0.2714
     78  CB         5.2700  -11.5200   15.2630 C.3   192  SER192      0.2130
     79  OG         6.1620  -12.6330   15.1630 O.3   192  SER192     -0.2179
     80  N          2.9230  -12.8310   16.4950 N.am  193  TRP193     -0.1959
     81  CA         2.2930  -13.9500   17.1950 C.3   193  TRP193      0.1771
     82  C          1.5750  -13.5500   18.4740 C.2   193  TRP193      0.2620
     83  O          1.5340  -12.3750   18.8290 O.2   193  TRP193     -0.2715
     84  CB         3.3150  -15.0720   17.4570 C.3   193  TRP193      0.0590
     85  CG         4.4530  -14.7360   18.3780 C.ar  193  TRP193      0.0006
     86  CD1        5.6120  -14.0710   18.0540 C.ar  193  TRP193      0.0946
     87  CD2        4.5610  -15.0710   19.7720 C.ar  193  TRP193      0.0152
     88  NE1        6.4260  -13.9690   19.1610 N.ar  193  TRP193     -0.2442
     89  CE2        5.8090  -14.5730   20.2260 C.ar  193  TRP193      0.0810
     90  CE3        3.7290  -15.7520   20.6790 C.ar  193  TRP193      0.0012
     91  CZ2        6.2540  -14.7370   21.5530 C.ar  193  TRP193      0.0191
     92  CZ3        4.1640  -15.9020   22.0060 C.ar  193  TRP193      0.0001
     93  CH2        5.4230  -15.4010   22.4220 C.ar  193  TRP193      0.0015
     94  N          1.0120  -14.5410   19.1580 N.am  194  GLY194     -0.1940
     95  CA         0.2900  -14.3090   20.4020 C.3   194  GLY194      0.2014
     96  C         -0.4610  -15.5860   20.7100 C.2   194  GLY194      0.2640
     97  O         -0.6470  -16.4360   19.8190 O.2   194  GLY194     -0.2714
     98  N         -0.8930  -15.7410   21.9530 N.am  195  SER195     -0.1935
     99  CA        -1.6640  -16.9300   22.3130 C.3   195  SER195      0.2055
    100  C         -3.1310  -16.6260   22.0940 C.2   195  SER195      0.2644
    101  O         -3.7350  -15.8730   22.8610 O.2   195  SER195     -0.2714
    102  CB        -1.4080  -17.3290   23.7660 C.3   195  SER195      0.2130
    103  OG        -2.3470  -18.3270   24.1640 O.3   195  SER195     -0.2179
    104  N         -3.6960  -17.2030   21.0330 N.am  196  GLY196     -0.1939
    105  CA        -5.0570  -16.8620   20.6070 C.3   196  GLY196      0.2014
    106  C         -5.0810  -15.4050   20.1710 C.2   196  GLY196      0.2639
    107  O         -4.0520  -14.8810   19.7400 O.2   196  GLY196     -0.2714
    108  N         -6.2390  -14.7590   20.2980 N.am  197  CYS197     -0.1967
    109  CA        -6.3800  -13.3230   20.0190 C.3   197  CYS197      0.1712
    110  C         -7.2670  -12.6920   21.0700 C.2   197  CYS197      0.2296
    111  O         -8.3210  -13.2550   21.4340 O.2   197  CYS197     -0.2864
    112  CB        -7.0260  -13.0850   18.6490 C.3   197  CYS197      0.0983
    113  SG        -6.3580  -14.1060   17.3470 S.3   197  CYS197     -0.0798
    114  N         -2.7520  -12.1130   27.4910 N.3   202  LYS202     -0.1231
    115  CA        -2.0300  -12.5970   26.3240 C.3   202  LYS202      0.1678
    116  C         -2.0540  -11.5280   25.2070 C.2   202  LYS202      0.2434
    117  O         -2.8010  -11.6420   24.2340 O.2   202  LYS202     -0.2733
    118  CB        -2.5970  -13.9420   25.8450 C.3   202  LYS202      0.0284
    119  CG        -2.4290  -15.0980   26.8540 C.3   202  LYS202      0.0035
    120  CD        -0.9610  -15.4780   27.0450 C.3   202  LYS202      0.0206
    121  CE        -0.7820  -16.5130   28.1540 C.3   202  LYS202      0.1093
    122  NZ         0.6670  -16.8940   28.2600 N.3   202  LYS202     -0.1314
    123  N         -1.2330  -10.4720   25.3570 N.am  203  PRO203     -0.2718
    124  CA        -1.2670   -9.4070   24.3550 C.3   203  PRO203      0.1535
    125  C         -0.5890   -9.8530   23.0560 C.2   203  PRO203      0.2599
    126  O          0.0570  -10.9090   23.0170 O.2   203  PRO203     -0.2715
    127  CB        -0.4710   -8.2800   25.0220 C.3   203  PRO203      0.0310
    128  CG         0.5120   -9.0060   25.9060 C.3   203  PRO203      0.0237
    129  CD        -0.2420  -10.2100   26.4220 C.3   203  PRO203      0.0939
    130  N         -0.7380   -9.0570   22.0090 N.am  204  GLY204     -0.1941
    131  CA        -0.0520   -9.3150   20.7470 C.3   204  GLY204      0.2014
    132  C          1.4600   -9.1760   20.8760 C.2   204  GLY204      0.2639
    133  O          1.9570   -8.2970   21.5960 O.2   204  GLY204     -0.2714
    134  N          2.1860  -10.0410   20.1660 N.am  205  VAL205     -0.1963
    135  CA         3.6490   -9.9600   20.1020 C.3   205  VAL205      0.1727
    136  C          4.0920   -9.5770   18.6920 C.2   205  VAL205      0.2616
    137  O          3.5960  -10.1150   17.7070 O.2   205  VAL205     -0.2715
    138  CB         4.3360  -11.2670   20.5580 C.3   205  VAL205      0.0290
    139  CG1        5.8430  -11.0470   20.6910 C.3   205  VAL205      0.0023
    140  CG2        3.7650  -11.7150   21.8960 C.3   205  VAL205      0.0023
    141  N          5.0200   -8.6240   18.6130 N.am  206  TYR206     -0.1974
    142  CA         5.3280   -7.9580   17.3510 C.3   206  TYR206      0.1639
    143  C          6.8270   -7.9290   17.1140 C.2   206  TYR206      0.2290
    144  O          7.6010   -7.7100   18.0410 O.2   206  TYR206     -0.2864
    145  CB         4.7690   -6.5260   17.3840 C.3   206  TYR206      0.0560
    146  CG         3.2610   -6.5260   17.5380 C.ar  206  TYR206     -0.0198
    147  CD1        2.4470   -6.7110   16.4270 C.ar  206  TYR206     -0.0009
    148  CD2        2.6530   -6.4150   18.8070 C.ar  206  TYR206     -0.0009
    149  CE1        1.0360   -6.7400   16.5450 C.ar  206  TYR206      0.0417
    150  CE2        1.2540   -6.4330   18.9430 C.ar  206  TYR206      0.0417
    151  CZ         0.4560   -6.6120   17.8000 C.ar  206  TYR206      0.1957
    152  OH        -0.9250   -6.6550   17.8860 O.3   206  TYR206     -0.2866
@<TRIPOS>BOND
     1    10     8   ar
     2    10    11   ar
     3     8     6   ar
     4    11     9   ar
     5     6     5    1
     6     6     7   ar
     7     1     2    1
     8     9     7   ar
     9     5     2    1
    10     2     3    1
    11    15    14    2
    12    12     3   am
    13    12    13    1
    14     3     4    2
    15    14    13    1
    16    16    13    1
    17    16    17    1
    18    21    20    2
    19    20    19    1
    20    60    59    2
    21    64    63    2
    22    18    19    1
    23    19    22    1
    24    58    59    1
    25    58    57    1
    26    63    62    1
    27    65    62    1
    28    65    66    1
    29    57    50   am
    30    62    61    1
    31    22    23    1
    32    25    23   ar
    33    25    27   ar
    34    23    24   ar
    35    27    26   ar
    36    51    50    2
    37    50    49    1
    38    24    26   ar
    39    70    69    2
    40    49    52    1
    41    49    48    1
    42    52    53    1
    43    73    71    1
    44    67    68    1
    45    71    68    1
    46    71    72    1
    47    45    44    2
    48    53    54    1
    49    69    68    1
    50    69    74   am
    51    48    44   am
    52    44    43    1
    53    74    75    1
    54    77    76    2
    55    75    76    1
    56    75    78    1
    57    54    55    2
    58    54    56   am
    59    43    42    1
    60    43    46    1
    61    42    38   am
    62    79    78    1
    63    46    47    1
    64    76    80   am
    65    40    37    1
    66    40    41    1
    67    47   113    1
    68    37    38    1
    69    37    36    1
    70    38    39    2
    71   147   149   ar
    72   147   146   ar
    73    80    81    1
    74   149   151   ar
    75   143   142    1
    76   143   144    2
    77    81    84    1
    78    81    82    1
    79    31    30    2
    80   113   112    1
    81   142   145    1
    82   142   141    1
    83   145   146    1
    84    84    85    1
    85    36    30   am
    86   146   148   ar
    87   137   136    2
    88   151   152    1
    89   151   150   ar
    90    30    29    1
    91    86    85   ar
    92    86    88   ar
    93    85    87   ar
    94    82    83    2
    95    82    94   am
    96   141   136   am
    97   112   109    1
    98   136   135    1
    99   148   150   ar
   100    94    95    1
   101    88    89   ar
   102    29    28    1
   103    29    32    1
   104   107   106    2
   105    87    89   ar
   106    87    90   ar
   107    97    96    2
   108    34    33   ar
   109   109   108    1
   110   109   110    1
   111   135   134    1
   112   135   138    1
   113   134   132   am
   114   106   108   am
   115   106   105    1
   116    32    33    1
   117    89    91   ar
   118    33    35   ar
   119    95    96    1
   120   138   139    1
   121   138   140    1
   122   105   104    1
   123    90    92   ar
   124    96    98   am
   125   131   132    1
   126   131   130    1
   127   132   133    2
   128   104   100   am
   129   110   111    2
   130    91    93   ar
   131    98    99    1
   132    92    93   ar
   133   130   125   am
   134   100    99    1
   135   100   101    2
   136    99   102    1
   137   126   125    2
   138   125   124    1
   139   102   103    1
   140   117   116    2
   141   124   127    1
   142   124   123    1
   143   127   128    1
   144   116   123   am
   145   116   115    1
   146   123   129    1
   147   118   115    1
   148   118   119    1
   149   128   129    1
   150   115   114    1
   151   119   120    1
   152   120   121    1
   153   121   122    1
