@<TRIPOS>MOLECULE
tmp/3a89A00.pdb
 135 136 0 0 0
SMALL
GASTEIGER

@<TRIPOS>ATOM
      1  N          7.2500  -16.8160    8.6640 N.3    40  HIS40      -0.1241
      2  CA         6.2940  -17.9300    8.6380 C.3    40  HIS40       0.1621
      3  C          5.2390  -17.7710    7.5410 C.2    40  HIS40       0.2264
      4  O          4.5150  -18.7250    7.2330 O.2    40  HIS40      -0.2867
      5  CB         5.6970  -18.2170   10.0200 C.3    40  HIS40       0.0745
      6  CG         4.5720  -17.3080   10.4090 C.ar   40  HIS40       0.0817
      7  ND1        4.7500  -16.2010   11.2150 N.ar   40  HIS40      -0.2268
      8  CD2        3.2440  -17.3710   10.1380 C.ar   40  HIS40       0.1154
      9  CE1        3.5810  -15.6130   11.4160 C.ar   40  HIS40       0.1986
     10  NE2        2.6510  -16.3020   10.7710 N.ar   40  HIS40      -0.2212
     11  N         -6.8810   -8.3960   20.3150 N.3   171  ASP171     -0.1225
     12  CA        -5.6400   -9.0580   19.8800 C.3   171  ASP171      0.1805
     13  C         -5.6140   -9.1500   18.3550 C.2   171  ASP171      0.2598
     14  O         -6.6440   -8.9730   17.7000 O.2   171  ASP171     -0.2718
     15  CB        -5.6100  -10.4810   20.4650 C.3   171  ASP171      0.1424
     16  CG        -4.2000  -11.0920   20.5380 C.2   171  ASP171      0.3668
     17  OD1       -3.1950  -10.4430   20.1560 O.co2 171  ASP171     -0.2456
     18  OD2       -4.1160  -12.2570   20.9930 O.co2 171  ASP171     -0.2456
     19  N         -4.4390   -9.4080   17.7880 N.am  172  SER172     -0.1938
     20  CA        -4.3850   -9.8870   16.4070 C.3   172  SER172      0.2055
     21  C         -4.6780  -11.3980   16.4130 C.2   172  SER172      0.2643
     22  O         -4.7980  -12.0080   17.4870 O.2   172  SER172     -0.2714
     23  CB        -3.0290   -9.5640   15.7630 C.3   172  SER172      0.2130
     24  OG        -1.9590  -10.1090   16.5140 O.3   172  SER172     -0.2179
     25  N         -4.7920  -12.0090   15.2320 N.am  173  CYS173     -0.1953
     26  CA        -5.2040  -13.4120   15.1470 C.3   173  CYS173      0.1843
     27  C         -4.7450  -14.0320   13.8200 C.2   173  CYS173      0.2625
     28  O         -4.0790  -13.3610   13.0200 O.2   173  CYS173     -0.2714
     29  CB        -6.7340  -13.5000   15.3260 C.3   173  CYS173      0.0997
     30  SG        -7.3700  -15.1430   15.7680 S.3   173  CYS173     -0.0797
     31  N         -5.0650  -15.3150   13.6110 N.am  174  GLN174     -0.1963
     32  CA        -4.7900  -16.0070   12.3560 C.3   174  GLN174      0.1733
     33  C         -5.2270  -15.1500   11.1570 C.2   174  GLN174      0.2616
     34  O         -6.3430  -14.6090   11.1430 O.2   174  GLN174     -0.2715
     35  CB        -5.5230  -17.3550   12.3320 C.3   174  GLN174      0.0408
     36  CG        -5.2370  -18.1790   11.0770 C.3   174  GLN174      0.0908
     37  CD        -5.9810  -19.4950   11.0460 C.2   174  GLN174      0.2608
     38  OE1       -6.7220  -19.8310   11.9770 O.2   174  GLN174     -0.2717
     39  NE2       -5.7940  -20.2510    9.9710 N.am  174  GLN174     -0.0878
     40  N         -4.3650  -15.0430   10.1490 N.am  175  GLY175     -0.1955
     41  CA        -4.6780  -14.2130    8.9810 C.3   175  GLY175      0.1869
     42  C         -4.1140  -12.8030    9.0880 C.2   175  GLY175      0.2309
     43  O         -3.9920  -12.1150    8.0760 O.2   175  GLY175     -0.2863
     44  N         -1.1220  -12.4740   10.4220 N.3   177  SER177     -0.1217
     45  CA         0.3130  -12.8130   10.3670 C.3   177  SER177      0.1889
     46  C          1.0510  -11.9900    9.3440 C.2   177  SER177      0.2288
     47  O          0.5870  -11.8540    8.2030 O.2   177  SER177     -0.2866
     48  CB         0.4810  -14.2880    9.9750 C.3   177  SER177      0.2089
     49  OG         0.1130  -15.1220   11.0460 O.3   177  SER177     -0.2183
     50  N          3.2430   -9.0110   13.0610 N.3   191  VAL191     -0.1231
     51  CA         2.3670  -10.0290   13.6590 C.3   191  VAL191      0.1692
     52  C          3.0030  -11.4200   13.5060 C.2   191  VAL191      0.2593
     53  O          3.2080  -11.9030   12.3850 O.2   191  VAL191     -0.2718
     54  CB         0.9610  -10.0240   13.0130 C.3   191  VAL191      0.0266
     55  CG1        0.0640  -11.0810   13.6780 C.3   191  VAL191      0.0020
     56  CG2        0.3230   -8.6190   13.0740 C.3   191  VAL191      0.0020
     57  N          3.3270  -12.0510   14.6370 N.am  192  SER192     -0.1938
     58  CA         4.1100  -13.2930   14.6060 C.3   192  SER192      0.2055
     59  C          3.3390  -14.4860   15.1830 C.2   192  SER192      0.2643
     60  O          3.0270  -15.4440   14.4480 O.2   192  SER192     -0.2714
     61  CB         5.4710  -13.0880   15.2860 C.3   192  SER192      0.2130
     62  OG         6.2970  -14.2400   15.2000 O.3   192  SER192     -0.2179
     63  N          3.0260  -14.4450   16.4780 N.am  193  TRP193     -0.1959
     64  CA         2.3530  -15.5860   17.1040 C.3   193  TRP193      0.1771
     65  C          1.6140  -15.2810   18.4060 C.2   193  TRP193      0.2620
     66  O          1.6100  -14.1490   18.8860 O.2   193  TRP193     -0.2715
     67  CB         3.3440  -16.7500   17.2940 C.3   193  TRP193      0.0590
     68  CG         4.5100  -16.5060   18.2530 C.ar  193  TRP193      0.0006
     69  CD1        5.7100  -15.8970   17.9690 C.ar  193  TRP193      0.0946
     70  CD2        4.5910  -16.9320   19.6210 C.ar  193  TRP193      0.0152
     71  NE1        6.5280  -15.8960   19.1010 N.ar  193  TRP193     -0.2442
     72  CE2        5.8630  -16.5300   20.1200 C.ar  193  TRP193      0.0810
     73  CE3        3.7090  -17.6140   20.4790 C.ar  193  TRP193      0.0012
     74  CZ2        6.2740  -16.7880   21.4420 C.ar  193  TRP193      0.0191
     75  CZ3        4.1140  -17.8620   21.8030 C.ar  193  TRP193      0.0001
     76  CH2        5.3900  -17.4540   22.2640 C.ar  193  TRP193      0.0015
     77  N          0.9630  -16.3140   18.9470 N.am  194  GLY194     -0.1940
     78  CA         0.3080  -16.2110   20.2500 C.3   194  GLY194      0.2014
     79  C         -0.4390  -17.4990   20.5040 C.2   194  GLY194      0.2640
     80  O         -0.6060  -18.3200   19.5930 O.2   194  GLY194     -0.2714
     81  N         -0.9000  -17.6700   21.7350 N.am  195  SER195     -0.1935
     82  CA        -1.6870  -18.8360   22.0710 C.3   195  SER195      0.2055
     83  C         -3.1640  -18.5160   21.9230 C.2   195  SER195      0.2644
     84  O         -3.7330  -17.7690   22.7270 O.2   195  SER195     -0.2714
     85  CB        -1.3770  -19.3150   23.4780 C.3   195  SER195      0.2130
     86  OG        -2.0730  -20.5370   23.6860 O.3   195  SER195     -0.2179
     87  N         -3.7740  -19.0570   20.8750 N.am  196  GLY196     -0.1939
     88  CA        -5.1350  -18.6560   20.5050 C.3   196  GLY196      0.2014
     89  C         -5.1060  -17.1710   20.1680 C.2   196  GLY196      0.2639
     90  O         -4.0450  -16.6350   19.8000 O.2   196  GLY196     -0.2714
     91  N         -6.2520  -16.5090   20.2910 N.am  197  CYS197     -0.1967
     92  CA        -6.3510  -15.0510   20.0780 C.3   197  CYS197      0.1712
     93  C         -7.2130  -14.4160   21.1460 C.2   197  CYS197      0.2296
     94  O         -8.3010  -14.9260   21.4420 O.2   197  CYS197     -0.2864
     95  CB        -6.9760  -14.7440   18.7090 C.3   197  CYS197      0.0983
     96  SG        -6.2450  -15.6690   17.3670 S.3   197  CYS197     -0.0798
     97  N         -2.6380  -14.2100   27.5240 N.3   202  LYS202     -0.1231
     98  CA        -1.9450  -14.6550   26.3190 C.3   202  LYS202      0.1678
     99  C         -1.9840  -13.5510   25.2640 C.2   202  LYS202      0.2434
    100  O         -2.7370  -13.6370   24.2930 O.2   202  LYS202     -0.2733
    101  CB        -2.5340  -15.9740   25.8060 C.3   202  LYS202      0.0284
    102  CG        -2.3210  -17.1610   26.7670 C.3   202  LYS202      0.0035
    103  CD        -0.8400  -17.5830   26.8060 C.3   202  LYS202      0.0206
    104  CE        -0.5730  -18.6520   27.8550 C.3   202  LYS202      0.1093
    105  NZ         0.8440  -19.1650   27.8180 N.3   202  LYS202     -0.1314
    106  N         -1.1610  -12.4970   25.4610 N.am  203  PRO203     -0.2718
    107  CA        -1.1490  -11.3860   24.5090 C.3   203  PRO203      0.1535
    108  C         -0.4630  -11.7830   23.1890 C.2   203  PRO203      0.2599
    109  O          0.1830  -12.8330   23.1190 O.2   203  PRO203     -0.2715
    110  CB        -0.3480  -10.3100   25.2470 C.3   203  PRO203      0.0310
    111  CG         0.5980  -11.0860   26.1220 C.3   203  PRO203      0.0237
    112  CD        -0.2000  -12.2970   26.5640 C.3   203  PRO203      0.0939
    113  N         -0.6330  -10.9640   22.1550 N.am  204  GLY204     -0.1941
    114  CA         0.0690  -11.1720   20.8790 C.3   204  GLY204      0.2014
    115  C          1.5780  -11.0450   21.0160 C.2   204  GLY204      0.2639
    116  O          2.0810  -10.2070   21.7780 O.2   204  GLY204     -0.2714
    117  N          2.3080  -11.8840   20.2820 N.am  205  VAL205     -0.1963
    118  CA         3.7640  -11.7930   20.2410 C.3   205  VAL205      0.1727
    119  C          4.2010  -11.3190   18.8580 C.2   205  VAL205      0.2616
    120  O          3.6950  -11.8040   17.8250 O.2   205  VAL205     -0.2715
    121  CB         4.4450  -13.1300   20.6220 C.3   205  VAL205      0.0290
    122  CG1        5.9820  -12.9640   20.7270 C.3   205  VAL205      0.0023
    123  CG2        3.8910  -13.6550   21.9340 C.3   205  VAL205      0.0023
    124  N          5.1460  -10.3780   18.8510 N.am  206  TYR206     -0.1974
    125  CA         5.5120   -9.6400   17.6460 C.3   206  TYR206      0.1639
    126  C          7.0090   -9.6680   17.3910 C.2   206  TYR206      0.2290
    127  O          7.8090   -9.6220   18.3240 O.2   206  TYR206     -0.2864
    128  CB         4.9960   -8.1830   17.7630 C.3   206  TYR206      0.0560
    129  CG         3.4870   -8.1680   17.9000 C.ar  206  TYR206     -0.0198
    130  CD1        2.6710   -8.2720   16.7750 C.ar  206  TYR206     -0.0009
    131  CD2        2.8820   -8.1310   19.1570 C.ar  206  TYR206     -0.0009
    132  CE1        1.2750   -8.2880   16.8830 C.ar  206  TYR206      0.0417
    133  CE2        1.4830   -8.1690   19.2840 C.ar  206  TYR206      0.0417
    134  CZ         0.6970   -8.2440   18.1420 C.ar  206  TYR206      0.1957
    135  OH        -0.6740   -8.2890   18.2510 O.3   206  TYR206     -0.2866
@<TRIPOS>BOND
     1     4     3    2
     2     3     2    1
     3    43    42    2
     4    47    46    2
     5     2     1    1
     6     2     5    1
     7    41    42    1
     8    41    40    1
     9    46    45    1
    10    39    37   am
    11    48    45    1
    12    48    49    1
    13     5     6    1
    14     8     6   ar
    15     8    10   ar
    16    40    33   am
    17    45    44    1
    18     6     7   ar
    19    10     9   ar
    20    37    36    1
    21    37    38    2
    22    36    35    1
    23    34    33    2
    24    33    32    1
    25     7     9   ar
    26    35    32    1
    27    32    31    1
    28    53    52    2
    29    54    56    1
    30    54    51    1
    31    54    55    1
    32    28    27    2
    33    50    51    1
    34    52    51    1
    35    52    57   am
    36    31    27   am
    37    27    26    1
    38    60    59    2
    39    58    57    1
    40    58    59    1
    41    58    61    1
    42    26    25    1
    43    26    29    1
    44    59    63   am
    45    62    61    1
    46    25    21   am
    47    29    30    1
    48    23    20    1
    49    23    24    1
    50    30    96    1
    51    20    21    1
    52    20    19    1
    53    21    22    2
    54    63    64    1
    55   130   132   ar
    56   130   129   ar
    57   132   134   ar
    58    64    67    1
    59    64    65    1
    60    67    68    1
    61    96    95    1
    62   126   125    1
    63   126   127    2
    64   125   128    1
    65   125   124    1
    66    14    13    2
    67   128   129    1
    68    19    13   am
    69   120   119    2
    70   129   131   ar
    71    69    68   ar
    72    69    71   ar
    73   134   135    1
    74   134   133   ar
    75    68    70   ar
    76    13    12    1
    77    65    66    2
    78    65    77   am
    79    95    92    1
    80   124   119   am
    81   119   118    1
    82    77    78    1
    83    71    72   ar
    84   131   133   ar
    85    80    79    2
    86    70    72   ar
    87    70    73   ar
    88    90    89    2
    89    12    11    1
    90    12    15    1
    91    92    91    1
    92    92    93    1
    93    72    74   ar
    94    17    16   ar
    95    89    91   am
    96    89    88    1
    97   118   117    1
    98   118   121    1
    99    78    79    1
   100   117   115   am
   101    15    16    1
   102    73    75   ar
   103    79    81   am
   104    88    87    1
   105    16    18   ar
   106   121   122    1
   107   121   123    1
   108    87    83   am
   109   114   115    1
   110   114   113    1
   111   115   116    2
   112    93    94    2
   113    74    76   ar
   114    81    82    1
   115    75    76   ar
   116    83    82    1
   117    83    84    2
   118    82    85    1
   119   113   108   am
   120   109   108    2
   121   108   107    1
   122    85    86    1
   123   100    99    2
   124   107   110    1
   125   107   106    1
   126   110   111    1
   127    99   106   am
   128    99    98    1
   129   106   112    1
   130   101    98    1
   131   101   102    1
   132   111   112    1
   133    98    97    1
   134   102   103    1
   135   103   104    1
   136   105   104    1
