@<TRIPOS>MOLECULE
tmp/3a8aA00.pdb
 118 116 0 0 0
SMALL
GASTEIGER

@<TRIPOS>ATOM
      1  N          7.2250  -16.8130    8.6980 N.3    40  HIS40      -0.1241
      2  CA         6.2760  -17.9240    8.6650 C.3    40  HIS40       0.1621
      3  C          5.2260  -17.7550    7.5550 C.2    40  HIS40       0.2264
      4  O          4.4660  -18.6840    7.2800 O.2    40  HIS40      -0.2867
      5  CB         5.6700  -18.2270   10.0450 C.3    40  HIS40       0.0745
      6  CG         4.5290  -17.3400   10.4400 C.ar   40  HIS40       0.0817
      7  ND1        4.6830  -16.2400   11.2600 N.ar   40  HIS40      -0.2268
      8  CD2        3.2040  -17.4250   10.1730 C.ar   40  HIS40       0.1154
      9  CE1        3.5080  -15.6680   11.4520 C.ar   40  HIS40       0.1986
     10  NE2        2.5920  -16.3710   10.8090 N.ar   40  HIS40      -0.2212
     11  N         -6.8760   -8.3370   20.2360 N.3   171  ASP171     -0.1225
     12  CA        -5.6360   -8.9840   19.8020 C.3   171  ASP171      0.1805
     13  C         -5.6130   -9.0740   18.2870 C.2   171  ASP171      0.2598
     14  O         -6.6350   -8.8740   17.6250 O.2   171  ASP171     -0.2718
     15  CB        -5.5970  -10.4010   20.4010 C.3   171  ASP171      0.1424
     16  CG        -4.2070  -11.0360   20.4360 C.2   171  ASP171      0.3668
     17  OD1       -3.1790  -10.4300   20.0580 O.co2 171  ASP171     -0.2456
     18  OD2       -4.1620  -12.2060   20.8740 O.co2 171  ASP171     -0.2456
     19  N         -4.4420   -9.3640   17.7350 N.am  172  SER172     -0.1938
     20  CA        -4.3630   -9.8580   16.3650 C.3   172  SER172      0.2055
     21  C         -4.6650  -11.3600   16.3740 C.2   172  SER172      0.2643
     22  O         -4.8010  -11.9680   17.4380 O.2   172  SER172     -0.2714
     23  CB        -2.9980   -9.5540   15.7360 C.3   172  SER172      0.2130
     24  OG        -1.9340  -10.0740   16.5130 O.3   172  SER172     -0.2179
     25  N         -4.7770  -11.9630   15.1960 N.am  173  CYS173     -0.1953
     26  CA        -5.2180  -13.3520   15.1130 C.3   173  CYS173      0.1843
     27  C         -4.7510  -13.9720   13.8020 C.2   173  CYS173      0.2625
     28  O         -4.0800  -13.3200   13.0060 O.2   173  CYS173     -0.2714
     29  CB        -6.7450  -13.4050   15.2530 C.3   173  CYS173      0.0997
     30  SG        -7.4450  -15.0120   15.6900 S.3   173  CYS173     -0.0797
     31  N         -5.1090  -15.2380   13.5850 N.am  174  GLN174     -0.1977
     32  CA        -4.8480  -15.9180   12.3170 C.3   174  GLN174      0.1601
     33  C         -5.2780  -15.0610   11.1220 C.2   174  GLN174      0.2287
     34  O         -6.3780  -14.5020   11.1150 O.2   174  GLN174     -0.2864
     35  CB        -5.5830  -17.2640   12.2720 C.3   174  GLN174      0.0394
     36  CG        -4.8490  -18.4290   12.9440 C.3   174  GLN174      0.0908
     37  CD        -4.8730  -18.3910   14.4660 C.2   174  GLN174      0.2608
     38  OE1       -5.8790  -18.0440   15.0850 O.2   174  GLN174     -0.2717
     39  NE2       -3.7630  -18.7840   15.0750 N.am  174  GLN174     -0.0878
     40  N         -1.1140  -12.4150   10.4080 N.3   177  SER177     -0.1217
     41  CA         0.2970  -12.7940   10.2950 C.3   177  SER177      0.1889
     42  C          1.0570  -11.9580    9.2860 C.2   177  SER177      0.2288
     43  O          0.6010  -11.7900    8.1620 O.2   177  SER177     -0.2866
     44  CB         0.4160  -14.2490    9.8620 C.3   177  SER177      0.2089
     45  OG         0.0900  -15.1230   10.9100 O.3   177  SER177     -0.2183
     46  N          3.2310   -8.9860   13.1190 N.3   191  VAL191     -0.1231
     47  CA         2.3590   -9.9940   13.7160 C.3   191  VAL191      0.1692
     48  C          3.0000  -11.3790   13.5570 C.2   191  VAL191      0.2593
     49  O          3.2350  -11.8390   12.4320 O.2   191  VAL191     -0.2718
     50  CB         0.9540   -9.9850   13.0690 C.3   191  VAL191      0.0266
     51  CG1        0.0380  -11.0110   13.7540 C.3   191  VAL191      0.0020
     52  CG2        0.3220   -8.6010   13.0960 C.3   191  VAL191      0.0020
     53  N          3.2870  -12.0390   14.6750 N.am  192  SER192     -0.1938
     54  CA         4.0640  -13.2780   14.6450 C.3   192  SER192      0.2055
     55  C          3.3020  -14.4760   15.2150 C.2   192  SER192      0.2643
     56  O          2.9920  -15.4130   14.4680 O.2   192  SER192     -0.2714
     57  CB         5.4250  -13.0750   15.3330 C.3   192  SER192      0.2130
     58  OG         6.2350  -14.2330   15.2330 O.3   192  SER192     -0.2179
     59  N          2.9790  -14.4590   16.5090 N.am  193  TRP193     -0.1959
     60  CA         2.3230  -15.6240   17.1180 C.3   193  TRP193      0.1771
     61  C          1.5980  -15.2840   18.4090 C.2   193  TRP193      0.2620
     62  O          1.6430  -14.1500   18.8680 O.2   193  TRP193     -0.2715
     63  CB         3.3180  -16.7850   17.3180 C.3   193  TRP193      0.0590
     64  CG         4.4420  -16.5250   18.2780 C.ar  193  TRP193      0.0006
     65  CD1        5.6200  -15.8900   18.0090 C.ar  193  TRP193      0.0946
     66  CD2        4.5130  -16.9450   19.6480 C.ar  193  TRP193      0.0152
     67  NE1        6.4190  -15.8750   19.1330 N.ar  193  TRP193     -0.2442
     68  CE2        5.7550  -16.5030   20.1560 C.ar  193  TRP193      0.0810
     69  CE3        3.6360  -17.6310   20.5040 C.ar  193  TRP193      0.0012
     70  CZ2        6.1550  -16.7480   21.4780 C.ar  193  TRP193      0.0191
     71  CZ3        4.0280  -17.8590   21.8210 C.ar  193  TRP193      0.0001
     72  CH2        5.2760  -17.4160   22.2930 C.ar  193  TRP193      0.0015
     73  N          0.9270  -16.2810   18.9800 N.am  194  GLY194     -0.1954
     74  CA         0.2350  -16.1530   20.2650 C.3   194  GLY194      0.1869
     75  C         -0.5330  -17.4290   20.5330 C.2   194  GLY194      0.2309
     76  O         -0.7090  -18.2440   19.6290 O.2   194  GLY194     -0.2863
     77  N         -3.8590  -19.0470   20.8720 N.3   196  GLY196     -0.1210
     78  CA        -5.2070  -18.6430   20.4640 C.3   196  GLY196      0.1956
     79  C         -5.1930  -17.1690   20.0780 C.2   196  GLY196      0.2612
     80  O         -4.1620  -16.6490   19.6430 O.2   196  GLY196     -0.2717
     81  N         -6.3260  -16.4950   20.2270 N.am  197  CYS197     -0.1970
     82  CA        -6.4060  -15.0530   19.9810 C.3   197  CYS197      0.1712
     83  C         -7.2530  -14.3990   21.0390 C.2   197  CYS197      0.2296
     84  O         -8.3340  -14.8960   21.3700 O.2   197  CYS197     -0.2864
     85  CB        -7.0410  -14.7540   18.6240 C.3   197  CYS197      0.0983
     86  SG        -6.3340  -15.6440   17.2700 S.3   197  CYS197     -0.0798
     87  N         -2.7230  -14.1040   27.5320 N.3   202  LYS202     -0.1245
     88  CA        -2.0210  -14.5770   26.3370 C.3   202  LYS202      0.1561
     89  C         -1.9940  -13.4880   25.2670 C.2   202  LYS202      0.2260
     90  O         -2.7050  -13.5720   24.2640 O.2   202  LYS202     -0.2867
     91  CB        -2.6530  -15.8670   25.8030 C.3   202  LYS202      0.0271
     92  CG        -2.4900  -17.0640   26.7380 C.3   202  LYS202      0.0035
     93  CD        -1.0310  -17.4750   26.8430 C.3   202  LYS202      0.0206
     94  CE        -0.8250  -18.5750   27.8510 C.3   202  LYS202      0.1093
     95  NZ         0.6120  -18.9680   27.9360 N.3   202  LYS202     -0.1314
     96  N         -0.6300  -10.8840   22.1970 N.3   204  GLY204     -0.1210
     97  CA         0.0550  -11.1170   20.9400 C.3   204  GLY204      0.1956
     98  C          1.5580  -10.9800   21.0710 C.2   204  GLY204      0.2612
     99  O          2.0480  -10.1420   21.8310 O.2   204  GLY204     -0.2717
    100  N          2.2780  -11.8170   20.3290 N.am  205  VAL205     -0.1965
    101  CA         3.7410  -11.7650   20.2560 C.3   205  VAL205      0.1727
    102  C          4.1480  -11.3120   18.8630 C.2   205  VAL205      0.2616
    103  O          3.6250  -11.8040   17.8500 O.2   205  VAL205     -0.2715
    104  CB         4.4040  -13.1260   20.5940 C.3   205  VAL205      0.0290
    105  CG1        5.9170  -12.9590   20.7730 C.3   205  VAL205      0.0023
    106  CG2        3.7940  -13.7230   21.8560 C.3   205  VAL205      0.0023
    107  N          5.0950  -10.3780   18.8310 N.am  206  TYR206     -0.1974
    108  CA         5.4640   -9.6430   17.6310 C.3   206  TYR206      0.1639
    109  C          6.9680   -9.6610   17.4210 C.2   206  TYR206      0.2290
    110  O          7.7490   -9.6060   18.3760 O.2   206  TYR206     -0.2864
    111  CB         4.9550   -8.1960   17.7540 C.3   206  TYR206      0.0560
    112  CG         3.4490   -8.1600   17.8880 C.ar  206  TYR206     -0.0198
    113  CD1        2.6450   -8.1610   16.7570 C.ar  206  TYR206     -0.0009
    114  CD2        2.8310   -8.1610   19.1400 C.ar  206  TYR206     -0.0009
    115  CE1        1.2750   -8.1520   16.8570 C.ar  206  TYR206      0.0417
    116  CE2        1.4530   -8.1570   19.2530 C.ar  206  TYR206      0.0417
    117  CZ         0.6790   -8.1490   18.1030 C.ar  206  TYR206      0.1957
    118  OH        -0.6940   -8.1560   18.1830 O.3   206  TYR206     -0.2866
@<TRIPOS>BOND
     1     4     3    2
     2     3     2    1
     3    43    42    2
     4     2     1    1
     5     2     5    1
     6    42    41    1
     7    44    41    1
     8    44    45    1
     9     5     6    1
    10     8     6   ar
    11     8    10   ar
    12    41    40    1
    13     6     7   ar
    14    10     9   ar
    15    34    33    2
    16    33    32    1
    17     7     9   ar
    18    35    32    1
    19    35    36    1
    20    32    31    1
    21    49    48    2
    22    36    37    1
    23    28    27    2
    24    50    52    1
    25    50    47    1
    26    50    51    1
    27    46    47    1
    28    48    47    1
    29    48    53   am
    30    31    27   am
    31    27    26    1
    32    37    39   am
    33    37    38    2
    34    56    55    2
    35    54    53    1
    36    54    55    1
    37    54    57    1
    38    26    25    1
    39    26    29    1
    40    25    21   am
    41    55    59   am
    42    58    57    1
    43    29    30    1
    44    30    86    1
    45    23    20    1
    46    23    24    1
    47    20    21    1
    48    20    19    1
    49    21    22    2
    50    59    60    1
    51   113   115   ar
    52   113   112   ar
    53   115   117   ar
    54    60    63    1
    55    60    61    1
    56    86    85    1
    57    63    64    1
    58   109   108    1
    59   109   110    2
    60    14    13    2
    61   108   111    1
    62   108   107    1
    63    19    13   am
    64   111   112    1
    65   103   102    2
    66   112   114   ar
    67    65    64   ar
    68    65    67   ar
    69   117   118    1
    70   117   116   ar
    71    64    66   ar
    72    13    12    1
    73    61    62    2
    74    61    73   am
    75    85    82    1
    76   107   102   am
    77   102   101    1
    78    73    74    1
    79    67    68   ar
    80   114   116   ar
    81    76    75    2
    82    80    79    2
    83    66    68   ar
    84    66    69   ar
    85    12    11    1
    86    12    15    1
    87    82    81    1
    88    82    83    1
    89    17    16   ar
    90    79    81   am
    91    79    78    1
    92    68    70   ar
    93   101   100    1
    94   101   104    1
    95    74    75    1
    96   100    98   am
    97    15    16    1
    98    16    18   ar
    99    78    77    1
   100    69    71   ar
   101   104   105    1
   102   104   106    1
   103    97    98    1
   104    97    96    1
   105    83    84    2
   106    98    99    2
   107    70    72   ar
   108    71    72   ar
   109    90    89    2
   110    89    88    1
   111    91    88    1
   112    91    92    1
   113    88    87    1
   114    92    93    1
   115    93    94    1
   116    94    95    1
