@<TRIPOS>MOLECULE
tmp/3a8bA00.pdb
 133 132 0 0 0
SMALL
GASTEIGER

@<TRIPOS>ATOM
      1  N          7.2620  -16.6480    8.6560 N.3    40  HIS40      -0.1241
      2  CA         6.2930  -17.7630    8.6010 C.3    40  HIS40       0.1621
      3  C          5.2350  -17.5720    7.5020 C.2    40  HIS40       0.2264
      4  O          4.4440  -18.4890    7.2200 O.2    40  HIS40      -0.2867
      5  CB         5.6700  -18.0660    9.9670 C.3    40  HIS40       0.0745
      6  CG         4.5550  -17.1460   10.3640 C.ar   40  HIS40       0.0817
      7  ND1        4.7290  -16.1060   11.2560 N.ar   40  HIS40      -0.2268
      8  CD2        3.2410  -17.1370   10.0260 C.ar   40  HIS40       0.1154
      9  CE1        3.5720  -15.4920   11.4460 C.ar   40  HIS40       0.1986
     10  NE2        2.6510  -16.1020   10.7170 N.ar   40  HIS40      -0.2212
     11  N         10.0700  -19.6190   16.2610 N.3    81  LEU81      -0.1245
     12  CA         9.7120  -18.3480   15.5980 C.3    81  LEU81       0.1561
     13  C         10.6810  -17.2020   15.8920 C.2    81  LEU81       0.2260
     14  O         10.3520  -16.0320   15.6860 O.2    81  LEU81      -0.2867
     15  CB         8.2430  -17.9370   15.8310 C.3    81  LEU81       0.0270
     16  CG         7.1750  -18.8880   15.2450 C.3    81  LEU81       0.0019
     17  CD1        5.7570  -18.3710   15.4830 C.3    81  LEU81       0.0001
     18  CD2        7.3970  -19.1390   13.7650 C.3    81  LEU81       0.0001
     19  N         -6.8130   -8.1880   20.3050 N.3   171  ASP171     -0.1225
     20  CA        -5.5760   -8.8530   19.8810 C.3   171  ASP171      0.1805
     21  C         -5.5760   -8.9790   18.3550 C.2   171  ASP171      0.2598
     22  O         -6.6120   -8.8190   17.7040 O.2   171  ASP171     -0.2718
     23  CB        -5.5230  -10.2670   20.5160 C.3   171  ASP171      0.1424
     24  CG        -4.1220  -10.9160   20.5020 C.2   171  ASP171      0.3668
     25  OD1       -3.1110  -10.2990   20.0790 O.co2 171  ASP171     -0.2456
     26  OD2       -4.0510  -12.0930   20.9320 O.co2 171  ASP171     -0.2456
     27  N         -4.4090   -9.2550   17.7880 N.am  172  SER172     -0.1938
     28  CA        -4.3360   -9.7220   16.4070 C.3   172  SER172      0.2055
     29  C         -4.6460  -11.2250   16.4090 C.2   172  SER172      0.2643
     30  O         -4.7960  -11.8250   17.4730 O.2   172  SER172     -0.2714
     31  CB        -2.9710   -9.4140   15.7860 C.3   172  SER172      0.2130
     32  OG        -1.9130   -9.9770   16.5430 O.3   172  SER172     -0.2179
     33  N         -4.7620  -11.8250   15.2280 N.am  173  CYS173     -0.1953
     34  CA        -5.1700  -13.2170   15.1450 C.3   173  CYS173      0.1843
     35  C         -4.6930  -13.8540   13.8370 C.2   173  CYS173      0.2625
     36  O         -4.0280  -13.1920   13.0390 O.2   173  CYS173     -0.2714
     37  CB        -6.6950  -13.3050   15.3220 C.3   173  CYS173      0.0997
     38  SG        -7.3330  -14.9280   15.7680 S.3   173  CYS173     -0.0797
     39  N         -5.0030  -15.1310   13.6070 N.am  174  GLN174     -0.1977
     40  CA        -4.5850  -15.7340   12.3310 C.3   174  GLN174      0.1601
     41  C         -5.1220  -14.9500   11.1400 C.2   174  GLN174      0.2287
     42  O         -6.2590  -14.4490   11.1560 O.2   174  GLN174     -0.2864
     43  CB        -4.8460  -17.2460   12.1890 C.3   174  GLN174      0.0394
     44  CG        -5.8340  -17.8860   13.0990 C.3   174  GLN174      0.0908
     45  CD        -5.3260  -18.1000   14.5270 C.2   174  GLN174      0.2608
     46  OE1       -6.1040  -18.0190   15.4630 O.2   174  GLN174     -0.2717
     47  NE2       -4.0280  -18.3810   14.6920 N.am  174  GLN174     -0.0878
     48  N         -1.0870  -12.2900   10.4050 N.3   177  SER177     -0.1217
     49  CA         0.3220  -12.6710   10.2970 C.3   177  SER177      0.1889
     50  C          1.0780  -11.8300    9.2860 C.2   177  SER177      0.2288
     51  O          0.6260  -11.6660    8.1530 O.2   177  SER177     -0.2866
     52  CB         0.4270  -14.1310    9.8370 C.3   177  SER177      0.2089
     53  OG         0.1390  -15.0120   10.8940 O.3   177  SER177     -0.2183
     54  N          3.2790   -8.8410   13.0550 N.3   191  VAL191     -0.1231
     55  CA         2.4020   -9.8530   13.6790 C.3   191  VAL191      0.1692
     56  C          3.0350  -11.2340   13.5090 C.2   191  VAL191      0.2593
     57  O          3.2400  -11.7010   12.3820 O.2   191  VAL191     -0.2718
     58  CB         0.9910   -9.8600   13.0420 C.3   191  VAL191      0.0266
     59  CG1        0.0840  -10.8680   13.7580 C.3   191  VAL191      0.0020
     60  CG2        0.3760   -8.4500   13.0760 C.3   191  VAL191      0.0020
     61  N          3.3490  -11.8790   14.6330 N.am  192  SER192     -0.1938
     62  CA         4.1110  -13.1350   14.5890 C.3   192  SER192      0.2055
     63  C          3.3460  -14.3150   15.2170 C.2   192  SER192      0.2643
     64  O          3.0430  -15.3090   14.5320 O.2   192  SER192     -0.2714
     65  CB         5.4950  -12.9230   15.2320 C.3   192  SER192      0.2130
     66  OG         6.2920  -14.0970   15.2410 O.3   192  SER192     -0.2179
     67  N          3.0410  -14.2310   16.5060 N.am  193  TRP193     -0.1959
     68  CA         2.3700  -15.3560   17.1600 C.3   193  TRP193      0.1771
     69  C          1.6330  -15.0070   18.4550 C.2   193  TRP193      0.2620
     70  O          1.6170  -13.8610   18.8700 O.2   193  TRP193     -0.2715
     71  CB         3.3390  -16.5310   17.3660 C.3   193  TRP193      0.0590
     72  CG         4.4830  -16.2780   18.3340 C.ar  193  TRP193      0.0006
     73  CD1        5.6740  -15.6570   18.0570 C.ar  193  TRP193      0.0946
     74  CD2        4.5410  -16.6610   19.7180 C.ar  193  TRP193      0.0152
     75  NE1        6.4770  -15.6270   19.1920 N.ar  193  TRP193     -0.2442
     76  CE2        5.8060  -16.2390   20.2210 C.ar  193  TRP193      0.0810
     77  CE3        3.6520  -17.3290   20.5840 C.ar  193  TRP193      0.0012
     78  CZ2        6.2030  -16.4630   21.5600 C.ar  193  TRP193      0.0191
     79  CZ3        4.0510  -17.5450   21.9200 C.ar  193  TRP193      0.0001
     80  CH2        5.3120  -17.1140   22.3840 C.ar  193  TRP193      0.0015
     81  N          0.9800  -16.0120   19.0320 N.am  194  GLY194     -0.1954
     82  CA         0.2630  -15.8670   20.2990 C.3   194  GLY194      0.1869
     83  C         -0.4630  -17.1780   20.5370 C.2   194  GLY194      0.2309
     84  O         -0.6660  -17.9580   19.6030 O.2   194  GLY194     -0.2863
     85  N         -3.6930  -18.8910   20.8530 N.3   196  GLY196     -0.1210
     86  CA        -5.0580  -18.5050   20.4540 C.3   196  GLY196      0.1956
     87  C         -5.0610  -17.0210   20.0950 C.2   196  GLY196      0.2612
     88  O         -4.0420  -16.4970   19.6370 O.2   196  GLY196     -0.2717
     89  N         -6.1970  -16.3540   20.2920 N.am  197  CYS197     -0.1970
     90  CA        -6.2940  -14.8930   20.0860 C.3   197  CYS197      0.1712
     91  C         -7.1630  -14.2630   21.1540 C.2   197  CYS197      0.2296
     92  O         -8.2470  -14.7700   21.4590 O.2   197  CYS197     -0.2864
     93  CB        -6.9140  -14.5660   18.7240 C.3   197  CYS197      0.0983
     94  SG        -6.2140  -15.5020   17.3670 S.3   197  CYS197     -0.0798
     95  N         -2.6040  -13.9680   27.5100 N.3   202  LYS202     -0.1231
     96  CA        -1.9030  -14.4470   26.3300 C.3   202  LYS202      0.1678
     97  C         -1.8910  -13.3480   25.2660 C.2   202  LYS202      0.2434
     98  O         -2.5960  -13.4400   24.2580 O.2   202  LYS202     -0.2733
     99  CB        -2.5160  -15.7530   25.8170 C.3   202  LYS202      0.0284
    100  CG        -2.3570  -16.9350   26.7950 C.3   202  LYS202      0.0035
    101  CD        -0.8890  -17.3150   26.9800 C.3   202  LYS202      0.0206
    102  CE        -0.7100  -18.4650   27.9470 C.3   202  LYS202      0.1093
    103  NZ         0.7310  -18.8310   28.0590 N.3   202  LYS202     -0.1314
    104  N         -1.0810  -12.2960   25.4960 N.am  203  PRO203     -0.2718
    105  CA        -1.1090  -11.1710   24.5630 C.3   203  PRO203      0.1535
    106  C         -0.4370  -11.5530   23.2410 C.2   203  PRO203      0.2599
    107  O          0.1730  -12.6200   23.1360 O.2   203  PRO203     -0.2715
    108  CB        -0.2880  -10.0960   25.2890 C.3   203  PRO203      0.0310
    109  CG         0.6840  -10.8890   26.1240 C.3   203  PRO203      0.0237
    110  CD        -0.1000  -12.0920   26.5830 C.3   203  PRO203      0.0939
    111  N         -0.5950  -10.7100   22.2260 N.am  204  GLY204     -0.1941
    112  CA         0.1020  -10.9180   20.9520 C.3   204  GLY204      0.2014
    113  C          1.6090  -10.7800   21.0810 C.2   204  GLY204      0.2639
    114  O          2.1040   -9.9450   21.8560 O.2   204  GLY204     -0.2714
    115  N          2.3360  -11.5980   20.3160 N.am  205  VAL205     -0.1963
    116  CA         3.7960  -11.5310   20.2630 C.3   205  VAL205      0.1727
    117  C          4.2250  -11.0960   18.8740 C.2   205  VAL205      0.2616
    118  O          3.7150  -11.6090   17.8630 O.2   205  VAL205     -0.2715
    119  CB         4.4610  -12.8830   20.6370 C.3   205  VAL205      0.0290
    120  CG1        5.9780  -12.6750   20.8440 C.3   205  VAL205      0.0023
    121  CG2        3.8300  -13.4340   21.9020 C.3   205  VAL205      0.0023
    122  N          5.1700  -10.1520   18.8400 N.am  206  TYR206     -0.1974
    123  CA         5.5430   -9.4430   17.6220 C.3   206  TYR206      0.1639
    124  C          7.0460   -9.4690   17.3960 C.2   206  TYR206      0.2290
    125  O          7.8190   -9.3960   18.3460 O.2   206  TYR206     -0.2864
    126  CB         5.0360   -7.9950   17.7230 C.3   206  TYR206      0.0560
    127  CG         3.5330   -7.9870   17.8730 C.ar  206  TYR206     -0.0198
    128  CD1        2.7250   -8.1070   16.7550 C.ar  206  TYR206     -0.0009
    129  CD2        2.9270   -7.9400   19.1440 C.ar  206  TYR206     -0.0009
    130  CE1        1.3350   -8.1470   16.8650 C.ar  206  TYR206      0.0417
    131  CE2        1.5220   -7.9750   19.2730 C.ar  206  TYR206      0.0417
    132  CZ         0.7430   -8.0680   18.1210 C.ar  206  TYR206      0.1957
    133  OH        -0.6330   -8.1160   18.1920 O.3   206  TYR206     -0.2866
@<TRIPOS>BOND
     1     4     3    2
     2     3     2    1
     3    51    50    2
     4     2     1    1
     5     2     5    1
     6    50    49    1
     7    52    49    1
     8    52    53    1
     9     5     6    1
    10     8     6   ar
    11     8    10   ar
    12    49    48    1
    13     6     7   ar
    14    10     9   ar
    15    41    42    2
    16    41    40    1
    17     7     9   ar
    18    43    40    1
    19    43    44    1
    20    40    39    1
    21    57    56    2
    22    36    35    2
    23    58    60    1
    24    58    55    1
    25    58    59    1
    26    54    55    1
    27    44    45    1
    28    56    55    1
    29    56    61   am
    30    39    35   am
    31    18    16    1
    32    35    34    1
    33    45    47   am
    34    45    46    2
    35    64    63    2
    36    62    61    1
    37    62    63    1
    38    62    65    1
    39    34    33    1
    40    34    37    1
    41    63    67   am
    42    33    29   am
    43    65    66    1
    44    16    17    1
    45    16    15    1
    46    37    38    1
    47    12    15    1
    48    12    13    1
    49    12    11    1
    50    14    13    2
    51    38    94    1
    52    31    28    1
    53    31    32    1
    54    28    29    1
    55    28    27    1
    56    29    30    2
    57    67    68    1
    58   128   130   ar
    59   128   127   ar
    60   130   132   ar
    61    68    71    1
    62    68    69    1
    63    71    72    1
    64    94    93    1
    65   124   123    1
    66   124   125    2
    67   123   126    1
    68   123   122    1
    69    22    21    2
    70   126   127    1
    71    27    21   am
    72   118   117    2
    73   127   129   ar
    74    73    72   ar
    75    73    75   ar
    76   132   133    1
    77   132   131   ar
    78    72    74   ar
    79    21    20    1
    80    69    70    2
    81    69    81   am
    82    93    90    1
    83   122   117   am
    84   117   116    1
    85    81    82    1
    86   129   131   ar
    87    75    76   ar
    88    84    83    2
    89    88    87    2
    90    74    76   ar
    91    74    77   ar
    92    20    19    1
    93    20    23    1
    94    25    24   ar
    95    90    89    1
    96    90    91    1
    97    87    89   am
    98    87    86    1
    99    76    78   ar
   100   116   115    1
   101   116   119    1
   102    82    83    1
   103   115   113   am
   104    86    85    1
   105    24    23    1
   106    24    26   ar
   107    77    79   ar
   108   119   120    1
   109   119   121    1
   110   112   113    1
   111   112   111    1
   112   113   114    2
   113    91    92    2
   114    78    80   ar
   115    79    80   ar
   116   111   106   am
   117   107   106    2
   118   106   105    1
   119    98    97    2
   120   105   108    1
   121   105   104    1
   122    97   104   am
   123    97    96    1
   124   108   109    1
   125   104   110    1
   126    99    96    1
   127    99   100    1
   128   109   110    1
   129    96    95    1
   130   100   101    1
   131   101   102    1
   132   102   103    1
