@<TRIPOS>MOLECULE
tmp/3a8eC00.pdb
 73 71 0 0 0
SMALL
GASTEIGER

@<TRIPOS>ATOM
      1  N         58.4780   -0.2710   92.2770 N.3     4  LYS4       -0.1231
      2  CA        57.5500    0.2330   91.2650 C.3     4  LYS4        0.1678
      3  C         58.1900    0.9370   90.0500 C.2     4  LYS4        0.2434
      4  O         59.3930    1.2030   90.0590 O.2     4  LYS4       -0.2733
      5  CB        56.3690    0.9720   91.9160 C.3     4  LYS4        0.0284
      6  CG        55.2960    0.0050   92.4810 C.3     4  LYS4        0.0035
      7  CD        54.8040   -1.0570   91.4340 C.3     4  LYS4        0.0206
      8  CE        55.8230   -2.2220   91.2150 C.3     4  LYS4        0.1093
      9  NZ        55.8160   -2.9510   89.8970 N.3     4  LYS4       -0.1314
     10  N         57.3760    1.2470   89.0130 N.am    5  PRO5       -0.2729
     11  CA        57.8080    1.4180   87.6310 C.3     5  PRO5        0.1401
     12  C         58.4440    2.7480   87.2700 C.2     5  PRO5        0.2269
     13  O         58.2700    3.7500   87.9650 O.2     5  PRO5       -0.2865
     14  CB        56.5010    1.2740   86.8550 C.3     5  PRO5        0.0296
     15  CG        55.5000    1.8530   87.7410 C.3     5  PRO5        0.0237
     16  CD        55.9300    1.5060   89.1370 C.3     5  PRO5        0.0939
     17  N         59.1800    5.9280   84.7580 N.3     7  PHE7       -0.1241
     18  CA        58.4520    6.7820   83.8250 C.3     7  PHE7        0.1605
     19  C         59.2980    7.7080   82.9660 C.2     7  PHE7        0.2264
     20  O         58.7520    8.5240   82.2220 O.2     7  PHE7       -0.2867
     21  CB        57.3830    7.5870   84.5540 C.3     7  PHE7        0.0534
     22  CG        56.1460    6.8070   84.8480 C.ar    7  PHE7       -0.0203
     23  CD1       55.4610    6.1600   83.8250 C.ar    7  PHE7       -0.0042
     24  CD2       55.6580    6.7170   86.1450 C.ar    7  PHE7       -0.0042
     25  CE1       54.3140    5.4320   84.0950 C.ar    7  PHE7       -0.0003
     26  CE2       54.5100    5.9930   86.4200 C.ar    7  PHE7       -0.0003
     27  CZ        53.8380    5.3490   85.3950 C.ar    7  PHE7       -0.0000
     28  N         60.3230   22.7530  100.2380 N.3    58  ASN58      -0.1225
     29  CA        61.2800   21.6580  100.0910 C.3    58  ASN58       0.1785
     30  C         60.7280   20.3250  100.5730 C.2    58  ASN58       0.2597
     31  O         60.9930   19.2750   99.9820 O.2    58  ASN58      -0.2718
     32  CB        62.5790   21.9840  100.8110 C.3    58  ASN58       0.1169
     33  CG        63.4810   22.8570   99.9870 C.2    58  ASN58       0.2627
     34  OD1       64.0410   22.4150   98.9850 O.2    58  ASN58      -0.2716
     35  ND2       63.6280   24.1110  100.3970 N.am   58  ASN58      -0.0877
     36  N         59.9490   20.3960  101.6470 N.am   59  ALA59      -0.1966
     37  CA        59.2650   19.2540  102.2090 C.3    59  ALA59       0.1728
     38  C         58.3750   18.5950  101.1560 C.2    59  ALA59       0.2616
     39  O         58.4410   17.3780  100.9460 O.2    59  ALA59      -0.2715
     40  CB        58.4510   19.6960  103.4040 C.3    59  ALA59       0.0334
     41  N         57.5630   19.4150  100.4910 N.am   60  LEU60      -0.1977
     42  CA        56.7200   18.9580   99.3980 C.3    60  LEU60       0.1596
     43  C         57.5250   18.3650   98.2500 C.2    60  LEU60       0.2287
     44  O         57.2460   17.2550   97.8080 O.2    60  LEU60      -0.2864
     45  CB        55.8320   20.0920   98.9050 C.3    60  LEU60       0.0297
     46  CG        54.3800   20.0910   99.3940 C.3    60  LEU60       0.0022
     47  CD1       54.1040   19.0760  100.5090 C.3    60  LEU60       0.0001
     48  CD2       53.9990   21.4950   99.8240 C.3    60  LEU60       0.0001
     49  N         60.2740   17.0040   98.2850 N.3    62  ALA62      -0.1231
     50  CA        60.8920   15.7590   98.7320 C.3    62  ALA62       0.1694
     51  C         59.9170   14.5860   98.6970 C.2    62  ALA62       0.2592
     52  O         60.3360   13.4280   98.6770 O.2    62  ALA62      -0.2718
     53  CB        61.4620   15.9260  100.1210 C.3    62  ALA62       0.0304
     54  N         58.6210   14.8920   98.7010 N.am   63  LEU63      -0.1966
     55  CA        57.5760   13.8780   98.6400 C.3    63  LEU63       0.1728
     56  C         57.7150   13.1330   97.3210 C.2    63  LEU63       0.2616
     57  O         57.4950   11.9210   97.2500 O.2    63  LEU63      -0.2715
     58  CB        56.2080   14.5610   98.7210 C.3    63  LEU63       0.0311
     59  CG        55.0150   13.9720   99.4760 C.3    63  LEU63       0.0022
     60  CD1       55.4100   13.4540  100.8240 C.3    63  LEU63       0.0001
     61  CD2       53.9410   15.0500   99.6260 C.3    63  LEU63       0.0001
     62  N         58.1170   13.8710   96.2900 N.am   64  ILE64      -0.1963
     63  CA        58.1730   13.3530   94.9320 C.3    64  ILE64       0.1727
     64  C         59.5900   13.3430   94.3540 C.2    64  ILE64       0.2616
     65  O         59.7840   13.0090   93.1850 O.2    64  ILE64      -0.2715
     66  CB        57.2020   14.1210   94.0080 C.3    64  ILE64       0.0290
     67  CG1       57.4520   15.6370   94.0900 C.3    64  ILE64       0.0022
     68  CG2       55.7580   13.7690   94.3840 C.3    64  ILE64       0.0023
     69  CD1       56.6970   16.4640   93.0590 C.3    64  ILE64       0.0001
     70  N         60.5710   13.7100   95.1780 N.am   65  GLY65      -0.1955
     71  CA        61.9790   13.6950   94.7740 C.3    65  GLY65       0.1869
     72  C         62.3150   14.6350   93.6320 C.2    65  GLY65       0.2309
     73  O         63.2480   14.3810   92.8690 O.2    65  GLY65      -0.2863
@<TRIPOS>BOND
     1    20    19    2
     2    19    18    1
     3    23    25   ar
     4    23    22   ar
     5    18    21    1
     6    18    17    1
     7    25    27   ar
     8    21    22    1
     9    22    24   ar
    10    27    26   ar
    11    24    26   ar
    12    14    11    1
    13    14    15    1
    14    12    11    1
    15    12    13    2
    16    11    10    1
    17    15    16    1
    18    10    16    1
    19    10     3   am
    20     9     8    1
    21     3     4    2
    22     3     2    1
    23     8     7    1
    24     2     5    1
    25     2     1    1
    26     7     6    1
    27     5     6    1
    28    73    72    2
    29    69    67    1
    30    65    64    2
    31    72    71    1
    32    66    67    1
    33    66    68    1
    34    66    63    1
    35    64    63    1
    36    64    70   am
    37    71    70    1
    38    63    62    1
    39    62    56   am
    40    57    56    2
    41    56    55    1
    42    44    43    2
    43    43    42    1
    44    49    50    1
    45    55    54    1
    46    55    58    1
    47    52    51    2
    48    51    54   am
    49    51    50    1
    50    58    59    1
    51    50    53    1
    52    45    46    1
    53    45    42    1
    54    34    33    2
    55    46    48    1
    56    46    47    1
    57    42    41    1
    58    59    61    1
    59    59    60    1
    60    31    30    2
    61    33    35   am
    62    33    32    1
    63    29    28    1
    64    29    30    1
    65    29    32    1
    66    41    38   am
    67    30    36   am
    68    39    38    2
    69    38    37    1
    70    36    37    1
    71    37    40    1
