@<TRIPOS>MOLECULE
tmp/3a8tA00.pdb
 152 143 0 0 0
SMALL
GASTEIGER

@<TRIPOS>ATOM
      1  N         24.2020   20.0570   23.5620 N.3    12  THR12      -0.1218
      2  CA        24.5010   20.1700   24.9780 C.3    12  THR12       0.1862
      3  C         23.7160   19.1570   25.7950 C.2    12  THR12       0.2287
      4  O         22.5120   19.0050   25.6250 O.2    12  THR12      -0.2866
      5  CB        24.1290   21.5680   25.4760 C.3    12  THR12       0.1770
      6  OG1       24.1740   21.6130   26.9110 O.3    12  THR12      -0.2211
      7  CG2       22.7230   21.9480   24.9800 C.3    12  THR12       0.0375
      8  N         34.1890   22.0730   23.8900 N.3    35  ASP35      -0.1225
      9  CA        33.1170   22.9620   24.3410 C.3    35  ASP35       0.1805
     10  C         33.8270   24.3050   24.6710 C.2    35  ASP35       0.2598
     11  O         34.7490   24.3750   25.4710 O.2    35  ASP35      -0.2718
     12  CB        32.4430   22.3200   25.5340 C.3    35  ASP35       0.1424
     13  CG        31.4160   23.1970   26.1600 C.2    35  ASP35       0.3668
     14  OD1       31.7620   24.3170   26.5820 O.co2  35  ASP35      -0.2456
     15  OD2       30.2540   22.7610   26.2460 O.co2  35  ASP35      -0.2456
     16  N         33.4410   25.3700   23.9990 N.am   36  LYS36      -0.1966
     17  CA        34.1310   26.6330   24.1980 C.3    36  LYS36       0.1728
     18  C         33.9870   27.3530   25.5540 C.2    36  LYS36       0.2616
     19  O         34.7870   28.2350   25.8570 O.2    36  LYS36      -0.2715
     20  CB        33.8250   27.5920   23.0220 C.3    36  LYS36       0.0311
     21  CG        32.4640   28.2410   23.0310 C.3    36  LYS36       0.0038
     22  CD        32.3520   29.2200   21.8450 C.3    36  LYS36       0.0206
     23  CE        31.2220   30.2410   22.0620 C.3    36  LYS36       0.1093
     24  NZ        31.0680   31.2030   20.9720 N.3    36  LYS36      -0.1314
     25  N         32.9900   26.9850   26.3630 N.am   37  MET37      -0.1963
     26  CA        32.8640   27.5860   27.6850 C.3    37  MET37       0.1736
     27  C         33.7200   26.7640   28.6670 C.2    37  MET37       0.2616
     28  O         34.3470   27.3040   29.5840 O.2    37  MET37      -0.2715
     29  CB        31.3930   27.6110   28.1480 C.3    37  MET37       0.0427
     30  CG        30.5290   28.6910   27.4680 C.3    37  MET37       0.0599
     31  SD        31.2630   30.3810   27.7470 S.3    37  MET37      -0.1393
     32  CE        31.8760   30.7040   26.1450 C.3    37  MET37       0.0692
     33  N         33.7620   25.4500   28.4480 N.am   38  GLN38      -0.1977
     34  CA        34.4850   24.5330   29.3000 C.3    38  GLN38       0.1601
     35  C         35.9900   24.6420   29.2480 C.2    38  GLN38       0.2287
     36  O         36.6720   23.9640   30.0210 O.2    38  GLN38      -0.2864
     37  CB        34.0650   23.0910   28.9860 C.3    38  GLN38       0.0394
     38  CG        32.6520   22.7970   29.4300 C.3    38  GLN38       0.0908
     39  CD        32.2960   21.3480   29.4170 C.2    38  GLN38       0.2608
     40  OE1       33.1180   20.4920   29.1540 O.2    38  GLN38      -0.2717
     41  NE2       31.0670   21.0600   29.7140 N.am   38  GLN38      -0.0878
     42  N         28.1370   25.5880   36.5460 N.3    46  THR46      -0.1203
     43  CA        27.4320   26.3100   35.5080 C.3    46  THR46       0.1994
     44  C         27.7750   25.8320   34.0970 C.2    46  THR46       0.2619
     45  O         26.8880   25.7460   33.2550 O.2    46  THR46      -0.2717
     46  CB        27.6660   27.8670   35.6250 C.3    46  THR46       0.1784
     47  OG1       27.3010   28.3370   36.9440 O.3    46  THR46      -0.2211
     48  CG2       26.7910   28.6130   34.5850 C.3    46  THR46       0.0376
     49  N         29.0390   25.4750   33.8670 N.am   47  THR47      -0.1938
     50  CA        29.4620   25.0480   32.5460 C.3    47  THR47       0.2028
     51  C         29.2890   23.5870   32.2500 C.2    47  THR47       0.2642
     52  O         29.4950   23.1650   31.1190 O.2    47  THR47      -0.2714
     53  CB        30.9560   25.4600   32.2010 C.3    47  THR47       0.1808
     54  OG1       31.8390   25.0100   33.2160 O.3    47  THR47      -0.2208
     55  CG2       31.0840   26.9920   32.0130 C.3    47  THR47       0.0379
     56  N         28.8670   22.8450   33.2760 N.am   48  ASN48      -0.1971
     57  CA        28.6070   21.4330   33.2240 C.3    48  ASN48       0.1688
     58  C         29.8770   20.6350   32.9290 C.2    48  ASN48       0.2292
     59  O         29.8640   19.7210   32.0870 O.2    48  ASN48      -0.2864
     60  CB        27.5270   21.1450   32.1850 C.3    48  ASN48       0.1181
     61  CG        26.3240   22.1650   32.2410 C.2    48  ASN48       0.2629
     62  OD1       26.2290   23.1300   31.3990 O.2    48  ASN48      -0.2716
     63  ND2       25.4100   21.9540   33.2020 N.am   48  ASN48      -0.0877
     64  N         30.5450   20.3760   22.0350 N.3   101  GLY101     -0.1210
     65  CA        29.5570   20.8720   21.1270 C.3   101  GLY101      0.1956
     66  C         29.7120   22.2220   20.4880 C.2   101  GLY101      0.2613
     67  O         28.7010   22.7210   19.9730 O.2   101  GLY101     -0.2717
     68  N         30.9040   22.8210   20.5110 N.am  102  SER102     -0.1938
     69  CA        31.0510   24.1230   19.8450 C.3   102  SER102      0.2055
     70  C         31.5020   23.8160   18.4500 C.2   102  SER102      0.2643
     71  O         32.6800   23.5780   18.1930 O.2   102  SER102     -0.2714
     72  CB        32.0650   25.0070   20.5250 C.3   102  SER102      0.2130
     73  OG        31.6760   25.1580   21.8690 O.3   102  SER102     -0.2179
     74  N         30.5260   23.7930   17.5610 N.am  103  ASN103     -0.1957
     75  CA        30.7810   23.4840   16.1700 C.3   103  ASN103      0.1819
     76  C         31.7860   24.4560   15.5770 C.2   103  ASN103      0.2622
     77  O         32.5230   24.0930   14.6940 O.2   103  ASN103     -0.2715
     78  CB        29.4400   23.3690   15.4300 C.3   103  ASN103      0.1195
     79  CG        28.5860   22.1470   15.9580 C.2   103  ASN103      0.2630
     80  OD1       29.0210   20.9780   15.8820 O.2   103  ASN103     -0.2716
     81  ND2       27.3820   22.4280   16.5070 N.am  103  ASN103     -0.0877
     82  N         31.8900   25.6590   16.1290 N.am  104  SER104     -0.1950
     83  CA        32.8890   26.5960   15.6500 C.3   104  SER104      0.1924
     84  C         34.3110   26.1210   16.0460 C.2   104  SER104      0.2314
     85  O         35.2870   26.3750   15.3140 O.2   104  SER104     -0.2863
     86  CB        32.6470   27.9970   16.2130 C.3   104  SER104      0.2116
     87  OG        33.1170   28.1490   17.5610 O.3   104  SER104     -0.2180
     88  N         24.3270   36.9360   26.2750 N.3   172  SER172     -0.1217
     89  CA        25.4300   36.0030   26.0430 C.3   172  SER172      0.1889
     90  C         26.0310   36.2260   24.6340 C.2   172  SER172      0.2288
     91  O         27.2410   36.1500   24.4490 O.2   172  SER172     -0.2866
     92  CB        24.8990   34.5550   26.0420 C.3   172  SER172      0.2089
     93  OG        24.7220   34.0310   27.3370 O.3   172  SER172     -0.2183
     94  N         29.8630   34.5670   28.7420 N.3   180  LYS180     -0.1231
     95  CA        28.8080   34.1880   27.8060 C.3   180  LYS180      0.1693
     96  C         28.0050   32.9450   28.2720 C.2   180  LYS180      0.2592
     97  O         26.9050   32.7370   27.7880 O.2   180  LYS180     -0.2718
     98  CB        29.3790   33.8120   26.4400 C.3   180  LYS180      0.0285
     99  CG        30.0770   34.9340   25.7190 C.3   180  LYS180      0.0035
    100  CD        30.6160   34.4220   24.4010 C.3   180  LYS180      0.0206
    101  CE        29.6460   34.7340   23.2960 C.3   180  LYS180      0.1093
    102  NZ        30.0580   34.0490   22.0370 N.3   180  LYS180     -0.1314
    103  N         28.5630   32.1350   29.1740 N.am  181  ALA181     -0.1966
    104  CA        27.9590   30.8970   29.6750 C.3   181  ALA181      0.1728
    105  C         26.5070   31.0410   30.0390 C.2   181  ALA181      0.2616
    106  O         26.1590   32.0150   30.6860 O.2   181  ALA181     -0.2715
    107  CB        28.7530   30.4160   30.8800 C.3   181  ALA181      0.0334
    108  N         25.6380   30.1040   29.6310 N.am  182  ILE182     -0.1977
    109  CA        24.2160   30.2530   29.9950 C.3   182  ILE182      0.1596
    110  C         24.1480   30.2090   31.5320 C.2   182  ILE182      0.2287
    111  O         24.7710   29.3510   32.1690 O.2   182  ILE182     -0.2864
    112  CB        23.2750   29.1270   29.4390 C.3   182  ILE182      0.0276
    113  CG1       23.3260   29.0320   27.9210 C.3   182  ILE182      0.0022
    114  CG2       21.8590   29.4370   29.8100 C.3   182  ILE182      0.0022
    115  CD1       22.9920   30.2300   27.2690 C.3   182  ILE182      0.0001
    116  N         19.5480   26.9130   22.6680 N.3   228  LEU228     -0.1245
    117  CA        20.9220   26.5910   22.2570 C.3   228  LEU228      0.1561
    118  C         20.9200   25.1670   21.6810 C.2   228  LEU228      0.2260
    119  O         21.5840   24.8850   20.6870 O.2   228  LEU228     -0.2867
    120  CB        21.8810   26.6740   23.4590 C.3   228  LEU228      0.0270
    121  CG        23.2770   26.1220   23.1600 C.3   228  LEU228      0.0019
    122  CD1       23.9460   26.9560   22.0520 C.3   228  LEU228      0.0001
    123  CD2       24.1330   26.0900   24.4200 C.3   228  LEU228      0.0001
    124  N         19.7220   25.2420   18.1110 N.3   231  ARG231     -0.1231
    125  CA        20.6810   25.7860   17.1430 C.3   231  ARG231      0.1694
    126  C         21.8490   24.8380   16.8730 C.2   231  ARG231      0.2591
    127  O         22.4150   24.8450   15.7890 O.2   231  ARG231     -0.2718
    128  CB        21.2260   27.1350   17.6090 C.3   231  ARG231      0.0321
    129  CG        20.1870   28.2180   17.5920 C.3   231  ARG231      0.0489
    130  CD        20.7640   29.6020   17.9080 C.3   231  ARG231      0.2205
    131  NE        21.3190   29.7380   19.2640 N.pl3 231  ARG231     -0.0865
    132  CZ        20.6510   30.1860   20.3390 C.cat 231  ARG231      0.5346
    133  NH1       19.3620   30.5530   20.2680 N.pl3 231  ARG231      0.1354
    134  NH2       21.3050   30.3150   21.4910 N.pl3 231  ARG231      0.1354
    135  N         22.2130   24.0370   17.8730 N.am  232  GLN232     -0.1979
    136  CA        23.2910   23.0790   17.7440 C.3   232  GLN232      0.1601
    137  C         22.9260   21.9450   16.8190 C.2   232  GLN232      0.2287
    138  O         23.7170   21.5660   15.9670 O.2   232  GLN232     -0.2864
    139  CB        23.6440   22.5320   19.1080 C.3   232  GLN232      0.0394
    140  CG        24.4020   23.5510   19.9440 C.3   232  GLN232      0.0908
    141  CD        24.7640   23.0280   21.3060 C.2   232  GLN232      0.2608
    142  OE1       23.9290   22.4330   21.9770 O.2   232  GLN232     -0.2717
    143  NE2       26.0100   23.2680   21.7390 N.am  232  GLN232     -0.0878
    144  N         22.6600   23.0480   13.2560 N.3   235  LYS235     -0.1245
    145  CA        24.0310   23.2240   12.8540 C.3   235  LYS235      0.1561
    146  C         24.6240   21.8310   12.5270 C.2   235  LYS235      0.2260
    147  O         25.2770   21.6240   11.4880 O.2   235  LYS235     -0.2867
    148  CB        24.7230   23.8870   14.0210 C.3   235  LYS235      0.0271
    149  CG        26.1160   24.4300   13.8190 C.3   235  LYS235      0.0035
    150  CD        26.4480   25.3450   14.9870 C.3   235  LYS235      0.0206
    151  CE        25.4740   26.5150   15.0150 C.3   235  LYS235      0.1093
    152  NZ        25.9690   27.6720   15.8290 N.3   235  LYS235     -0.1314
@<TRIPOS>BOND
     1   147   146    2
     2   146   145    1
     3   145   144    1
     4   145   148    1
     5   149   148    1
     6   149   150    1
     7    77    76    2
     8   150   151    1
     9   151   152    1
    10    85    84    2
    11    78    79    1
    12    78    75    1
    13    76    82   am
    14    76    75    1
    15    83    84    1
    16    83    82    1
    17    83    86    1
    18   127   126    2
    19    80    79    2
    20    79    81   am
    21   138   137    2
    22    75    74    1
    23    86    87    1
    24   137   136    1
    25   126   125    1
    26   126   135   am
    27   125   128    1
    28   125   124    1
    29    74    70   am
    30   129   128    1
    31   129   130    1
    32   136   135    1
    33   136   139    1
    34   130   131    1
    35    71    70    2
    36    70    69    1
    37   139   140    1
    38   131   132    2
    39    69    68    1
    40    69    72    1
    41   140   141    1
    42    67    66    2
    43   133   132    1
    44   132   134    1
    45    66    68   am
    46    66    65    1
    47    72    73    1
    48   119   118    2
    49    24    23    1
    50    65    64    1
    51   141   143   am
    52   141   142    2
    53   118   117    1
    54    22    23    1
    55    22    21    1
    56   102   101    1
    57   122   121    1
    58   117   116    1
    59   117   120    1
    60    20    21    1
    61    20    17    1
    62   121   120    1
    63   121   123    1
    64   101   100    1
    65     1     2    1
    66     8     9    1
    67    16    17    1
    68    16    10   am
    69    17    18    1
    70     9    10    1
    71     9    12    1
    72   100    99    1
    73    91    90    2
    74    90    89    1
    75    10    11    2
    76     2     5    1
    77     2     3    1
    78     7     5    1
    79     5     6    1
    80    12    13    1
    81    18    19    2
    82    18    25   am
    83     4     3    2
    84    99    98    1
    85    92    89    1
    86    92    93    1
    87    89    88    1
    88    32    31    1
    89    13    15   ar
    90    13    14   ar
    91    25    26    1
    92    98    95    1
    93   115   113    1
    94    30    31    1
    95    30    29    1
    96    26    29    1
    97    26    27    1
    98    97    96    2
    99    95    96    1
   100    95    94    1
   101   113   112    1
   102    96   103   am
   103    33    27   am
   104    33    34    1
   105    27    28    2
   106    37    34    1
   107    37    38    1
   108    40    39    2
   109   103   104    1
   110    35    34    1
   111    35    36    2
   112    39    38    1
   113    39    41   am
   114   112   114    1
   115   112   109    1
   116   108   109    1
   117   108   105   am
   118   104   105    1
   119   104   107    1
   120   109   110    1
   121   105   106    2
   122    52    51    2
   123    62    61    2
   124   110   111    2
   125    55    53    1
   126    59    58    2
   127    60    61    1
   128    60    57    1
   129    53    50    1
   130    53    54    1
   131    61    63   am
   132    51    50    1
   133    51    56   am
   134    50    49    1
   135    58    57    1
   136    57    56    1
   137    45    44    2
   138    49    44   am
   139    44    43    1
   140    48    46    1
   141    43    46    1
   142    43    42    1
   143    46    47    1
