@<TRIPOS>MOLECULE
tmp/3a8wA00.pdb
 218 209 0 0 0
SMALL
GASTEIGER

@<TRIPOS>ATOM
      1  N          9.0410  -18.2880  -19.4690 N.3    15  ILE15      -0.1231
      2  CA         8.1330  -17.4250  -18.7030 C.3    15  ILE15       0.1692
      3  C          8.2860  -17.5190  -17.1890 C.2    15  ILE15       0.2593
      4  O          7.7270  -16.7160  -16.4450 O.2    15  ILE15      -0.2718
      5  CB         6.6230  -17.6530  -19.0680 C.3    15  ILE15       0.0266
      6  CG1        6.1360  -19.0500  -18.6380 C.3    15  ILE15       0.0019
      7  CG2        6.3810  -17.4270  -20.5640 C.3    15  ILE15       0.0020
      8  CD1        4.6630  -19.3680  -19.0800 C.3    15  ILE15       0.0001
      9  N          9.0100  -18.5250  -16.7140 N.am   16  GLY16      -0.1942
     10  CA         9.0510  -18.7540  -15.2700 C.3    16  GLY16       0.2014
     11  C         10.0920  -19.7770  -14.9010 C.2    16  GLY16       0.2639
     12  O         10.4870  -20.5950  -15.7480 O.2    16  GLY16      -0.2714
     13  N         10.5560  -19.6770  -13.6460 N.am   17  ARG17      -0.1963
     14  CA        11.4620  -20.6200  -13.0110 C.3    17  ARG17       0.1729
     15  C         11.0940  -20.7730  -11.5370 C.2    17  ARG17       0.2617
     16  O         10.8550  -19.7800  -10.8330 O.2    17  ARG17      -0.2715
     17  CB        12.9090  -20.1300  -13.0920 C.3    17  ARG17       0.0348
     18  CG        13.5270  -20.2200  -14.4670 C.3    17  ARG17       0.0492
     19  CD        15.0060  -19.8240  -14.4250 C.3    17  ARG17       0.2205
     20  NE        15.6740  -19.9670  -15.7210 N.pl3  17  ARG17      -0.0865
     21  CZ        16.2060  -21.1010  -16.1700 C.cat  17  ARG17       0.5346
     22  NH1       16.1130  -22.2110  -15.4540 N.pl3  17  ARG17       0.1354
     23  NH2       16.7990  -21.1360  -17.3510 N.pl3  17  ARG17       0.1354
     24  N         11.0020  -22.0190  -11.0780 N.am   18  GLY18      -0.1940
     25  CA        10.8400  -22.2830   -9.6620 C.3    18  GLY18       0.2014
     26  C         11.9930  -23.1640   -9.2150 C.2    18  GLY18       0.2640
     27  O         12.9690  -23.3250   -9.9380 O.2    18  GLY18      -0.2714
     28  N         11.8440  -23.7690   -8.0410 N.am   19  SER19      -0.1935
     29  CA        12.7990  -24.7180   -7.4940 C.3    19  SER19       0.2055
     30  C         12.9440  -25.9860   -8.3430 C.2    19  SER19       0.2643
     31  O         13.9750  -26.6700   -8.2940 O.2    19  SER19      -0.2714
     32  CB        12.3280  -25.1420   -6.1030 C.3    19  SER19       0.2130
     33  OG        12.4330  -24.0590   -5.1970 O.3    19  SER19      -0.2179
     34  N         11.8940  -26.3290   -9.0730 N.am   20  TYR20      -0.1959
     35  CA        11.8900  -27.5440   -9.8670 C.3    20  TYR20       0.1771
     36  C         11.8430  -27.2920  -11.3690 C.2    20  TYR20       0.2619
     37  O         12.6020  -27.8780  -12.1380 O.2    20  TYR20      -0.2715
     38  CB        10.7130  -28.4230   -9.4560 C.3    20  TYR20       0.0574
     39  CG        11.0620  -29.3310   -8.2940 C.ar   20  TYR20      -0.0198
     40  CD1       11.0200  -28.8700   -6.9920 C.ar   20  TYR20      -0.0009
     41  CD2       11.4470  -30.6480   -8.5120 C.ar   20  TYR20      -0.0009
     42  CE1       11.3360  -29.7040   -5.9250 C.ar   20  TYR20       0.0417
     43  CE2       11.7640  -31.4920   -7.4560 C.ar   20  TYR20       0.0417
     44  CZ        11.7060  -31.0130   -6.1670 C.ar   20  TYR20       0.1957
     45  OH        12.0160  -31.8620   -5.1310 O.3    20  TYR20      -0.2866
     46  N         10.9300  -26.4230  -11.7780 N.am   21  ALA21      -0.1977
     47  CA        10.5930  -26.2920  -13.1710 C.3    21  ALA21       0.1597
     48  C         11.2180  -25.0550  -13.7830 C.2    21  ALA21       0.2287
     49  O         11.2080  -23.9590  -13.1890 O.2    21  ALA21      -0.2864
     50  CB         9.0870  -26.2310  -13.3270 C.3    21  ALA21       0.0319
     51  N          9.7680  -23.0620  -16.8360 N.3    23  VAL23      -0.1245
     52  CA         8.4300  -22.9570  -17.4000 C.3    23  VAL23       0.1561
     53  C          8.4390  -22.1510  -18.6920 C.2    23  VAL23       0.2260
     54  O          8.9540  -21.0370  -18.7380 O.2    23  VAL23      -0.2867
     55  CB         7.4390  -22.3320  -16.3990 C.3    23  VAL23       0.0252
     56  CG1        6.0070  -22.2260  -17.0290 C.3    23  VAL23       0.0019
     57  CG2        7.4070  -23.1590  -15.1240 C.3    23  VAL23       0.0019
     58  N          1.4190  -23.5530  -21.4140 N.3    36  ALA36      -0.1245
     59  CA         2.6160  -23.5400  -20.6100 C.3    36  ALA36       0.1562
     60  C          3.1740  -24.9450  -20.5530 C.2    36  ALA36       0.2260
     61  O          2.4380  -25.9380  -20.6490 O.2    36  ALA36      -0.2867
     62  CB         2.3020  -23.0140  -19.2210 C.3    36  ALA36       0.0290
     63  N          5.9570  -27.0450  -18.0830 N.3    38  LYS38      -0.1245
     64  CA         6.9320  -27.1960  -17.0340 C.3    38  LYS38       0.1561
     65  C          7.9910  -28.2190  -17.4010 C.2    38  LYS38       0.2260
     66  O          7.6750  -29.3310  -17.8250 O.2    38  LYS38      -0.2867
     67  CB         6.2600  -27.5370  -15.7010 C.3    38  LYS38       0.0271
     68  CG         5.1870  -26.5230  -15.2830 C.3    38  LYS38       0.0035
     69  CD         5.2770  -26.1400  -13.8230 C.3    38  LYS38       0.0206
     70  CE         5.0940  -27.3090  -12.8870 C.3    38  LYS38       0.1093
     71  NZ         4.8020  -26.8100  -11.5030 N.3    38  LYS38      -0.1314
     72  N          7.9190  -36.7730   -5.8690 N.3    49  TRP49      -0.1241
     73  CA         7.4510  -35.4970   -6.3520 C.3    49  TRP49       0.1605
     74  C          6.6100  -35.7760   -7.6180 C.2    49  TRP49       0.2264
     75  O          5.4890  -35.2840   -7.7730 O.2    49  TRP49      -0.2867
     76  CB         8.6560  -34.6160   -6.6770 C.3    49  TRP49       0.0550
     77  CG         8.3070  -33.2310   -7.0970 C.ar   49  TRP49       0.0003
     78  CD1        8.1410  -32.1490   -6.2880 C.ar   49  TRP49       0.0946
     79  CD2        8.1000  -32.7720   -8.4320 C.ar   49  TRP49       0.0152
     80  NE1        7.8400  -31.0410   -7.0320 N.ar   49  TRP49      -0.2442
     81  CE2        7.7970  -31.3970   -8.3550 C.ar   49  TRP49       0.0810
     82  CE3        8.1280  -33.3900   -9.6840 C.ar   49  TRP49       0.0012
     83  CZ2        7.5300  -30.6250   -9.4820 C.ar   49  TRP49       0.0191
     84  CZ3        7.8570  -32.6200  -10.8160 C.ar   49  TRP49       0.0001
     85  CH2        7.5710  -31.2510  -10.7050 C.ar   49  TRP49       0.0015
     86  N          2.5640  -34.6370   -8.4400 N.3    53  GLU53      -0.1245
     87  CA         2.2590  -33.6220   -9.4390 C.3    53  GLU53       0.1567
     88  C          1.3170  -34.1980  -10.4830 C.2    53  GLU53       0.2260
     89  O          0.2690  -33.6250  -10.7730 O.2    53  GLU53      -0.2867
     90  CB         3.5270  -33.1310  -10.1270 C.3    53  GLU53       0.0388
     91  CG         4.3870  -32.2630   -9.2660 C.3    53  GLU53       0.1160
     92  CD         4.0120  -30.7960   -9.3330 C.2    53  GLU53       0.3649
     93  OE1        3.5630  -30.3210  -10.4030 O.co2  53  GLU53      -0.2457
     94  OE2        4.1890  -30.1120   -8.3070 O.co2  53  GLU53      -0.2457
     95  N         -5.2730  -25.3130  -12.5190 N.3    67  VAL67      -0.1245
     96  CA        -4.4900  -25.4660  -13.7280 C.3    67  VAL67       0.1561
     97  C         -4.5070  -26.9320  -14.1380 C.2    67  VAL67       0.2260
     98  O         -4.0690  -27.7890  -13.3770 O.2    67  VAL67      -0.2867
     99  CB        -3.0320  -24.9780  -13.5220 C.3    67  VAL67       0.0252
    100  CG1       -2.1660  -25.3270  -14.7400 C.3    67  VAL67       0.0019
    101  CG2       -3.0120  -23.4650  -13.2370 C.3    67  VAL67       0.0019
    102  N          0.5630  -27.8250  -19.7910 N.3    83  ILE83      -0.1231
    103  CA        -0.5200  -27.3910  -18.9190 C.3    83  ILE83       0.1692
    104  C         -1.1610  -26.1190  -19.4420 C.2    83  ILE83       0.2592
    105  O         -0.6500  -25.5080  -20.3800 O.2    83  ILE83      -0.2718
    106  CB        -0.0030  -27.1450  -17.4750 C.3    83  ILE83       0.0266
    107  CG1        1.1560  -26.1460  -17.4710 C.3    83  ILE83       0.0019
    108  CG2        0.4710  -28.4710  -16.8510 C.3    83  ILE83       0.0020
    109  CD1        1.6260  -25.7580  -16.0560 C.3    83  ILE83       0.0001
    110  N         -2.2840  -25.7200  -18.8520 N.am   84  GLU84      -0.1966
    111  CA        -2.9540  -24.5080  -19.3040 C.3    84  GLU84       0.1733
    112  C         -2.0880  -23.2790  -19.0300 C.2    84  GLU84       0.2616
    113  O         -1.5740  -23.0960  -17.9170 O.2    84  GLU84      -0.2715
    114  CB        -4.2980  -24.3010  -18.6140 C.3    84  GLU84       0.0429
    115  CG        -5.1320  -25.5440  -18.4420 C.3    84  GLU84       0.1163
    116  CD        -6.4740  -25.2210  -17.7960 C.2    84  GLU84       0.3649
    117  OE1       -7.3350  -24.6470  -18.4900 O.co2  84  GLU84      -0.2457
    118  OE2       -6.6490  -25.5150  -16.5940 O.co2  84  GLU84      -0.2457
    119  N         -1.9660  -22.4480  -20.0610 N.am   85  TYR85      -0.1960
    120  CA        -1.2850  -21.1630  -20.0200 C.3    85  TYR85       0.1771
    121  C         -2.1940  -20.1240  -19.3790 C.2    85  TYR85       0.2619
    122  O         -3.2550  -19.8160  -19.9150 O.2    85  TYR85      -0.2715
    123  CB        -0.9480  -20.7560  -21.4470 C.3    85  TYR85       0.0574
    124  CG        -0.2290  -19.4220  -21.5870 C.ar   85  TYR85      -0.0198
    125  CD1        0.8920  -19.1200  -20.8130 C.ar   85  TYR85      -0.0009
    126  CD2       -0.6560  -18.4780  -22.5160 C.ar   85  TYR85      -0.0009
    127  CE1        1.5550  -17.9030  -20.9480 C.ar   85  TYR85       0.0417
    128  CE2        0.0010  -17.2580  -22.6580 C.ar   85  TYR85       0.0417
    129  CZ         1.1070  -16.9820  -21.8760 C.ar   85  TYR85       0.1957
    130  OH         1.7710  -15.7870  -22.0260 O.3    85  TYR85      -0.2866
    131  N         -1.8040  -19.6240  -18.2090 N.am   86  VAL86      -0.1977
    132  CA        -2.5980  -18.6250  -17.5040 C.3    86  VAL86       0.1596
    133  C         -1.8390  -17.3060  -17.4140 C.2    86  VAL86       0.2287
    134  O         -0.8280  -17.2170  -16.6920 O.2    86  VAL86      -0.2864
    135  CB        -2.9450  -19.0700  -16.0880 C.3    86  VAL86       0.0276
    136  CG1       -3.9480  -18.1180  -15.4990 C.3    86  VAL86       0.0022
    137  CG2       -3.5230  -20.5070  -16.0940 C.3    86  VAL86       0.0022
    138  N         -0.3890  -25.0100   -0.0720 N.3   129  ASP129     -0.1239
    139  CA         0.4590  -23.8670   -0.4510 C.3   129  ASP129      0.1674
    140  C         -0.2970  -22.6320   -0.9830 C.2   129  ASP129      0.2266
    141  O          0.2070  -21.9050   -1.8430 O.2   129  ASP129     -0.2867
    142  CB         1.5130  -24.3310   -1.4590 C.3   129  ASP129      0.1410
    143  CG         2.7890  -23.5240   -1.3920 C.2   129  ASP129      0.3668
    144  OD1        3.0100  -22.7930   -0.3930 O.co2 129  ASP129     -0.2456
    145  OD2        3.5600  -23.5970   -2.3680 O.co2 129  ASP129     -0.2456
    146  N          0.9120  -15.4630   -4.4600 N.3   133  ASP133     -0.1225
    147  CA         1.5690  -15.7050   -5.7540 C.3   133  ASP133      0.1805
    148  C          1.2730  -17.0780   -6.3510 C.2   133  ASP133      0.2597
    149  O          1.7330  -17.3930   -7.4500 O.2   133  ASP133     -0.2718
    150  CB         3.0680  -15.4450   -5.6890 C.3   133  ASP133      0.1424
    151  CG         3.7010  -16.0700   -4.4800 C.2   133  ASP133      0.3668
    152  OD1        3.1320  -15.9230   -3.3670 O.co2 133  ASP133     -0.2456
    153  OD2        4.7700  -16.6920   -4.6430 O.co2 133  ASP133     -0.2456
    154  N          0.4910  -17.8860   -5.6370 N.am  134  ASN134     -0.1974
    155  CA         0.0210  -19.1600   -6.1840 C.3   134  ASN134      0.1688
    156  C         -1.4160  -19.0380   -6.6970 C.2   134  ASN134      0.2292
    157  O         -2.0260  -20.0210   -7.0980 O.2   134  ASN134     -0.2864
    158  CB         0.1070  -20.2740   -5.1350 C.3   134  ASN134      0.1181
    159  CG         1.5020  -20.8940   -5.0460 C.2   134  ASN134      0.2629
    160  OD1        2.3660  -20.6450   -5.8890 O.2   134  ASN134     -0.2716
    161  ND2        1.7130  -21.7260   -4.0310 N.am  134  ASN134     -0.0877
    162  N         -3.1150  -17.4610   -9.6830 N.3   136  LEU136     -0.1245
    163  CA        -2.9110  -16.8300  -10.9650 C.3   136  LEU136      0.1561
    164  C         -4.2450  -16.2540  -11.3880 C.2   136  LEU136      0.2260
    165  O         -5.2760  -16.6100  -10.8290 O.2   136  LEU136     -0.2867
    166  CB        -2.4310  -17.8490  -11.9900 C.3   136  LEU136      0.0270
    167  CG        -1.1490  -18.6050  -11.6360 C.3   136  LEU136      0.0019
    168  CD1       -0.6440  -19.3980  -12.8270 C.3   136  LEU136      0.0001
    169  CD2       -0.0590  -17.6260  -11.1550 C.3   136  LEU136      0.0001
    170  N         -2.3470  -22.6630   -8.6260 N.3   146  THR146     -0.1203
    171  CA        -1.1990  -23.2600   -9.3170 C.3   146  THR146      0.1994
    172  C         -0.2180  -23.8190   -8.2790 C.2   146  THR146      0.2617
    173  O         -0.3870  -23.5860   -7.0780 O.2   146  THR146     -0.2717
    174  CB        -0.5010  -22.2060  -10.2010 C.3   146  THR146      0.1784
    175  OG1        0.4690  -22.8400  -11.0340 O.3   146  THR146     -0.2211
    176  CG2        0.1710  -21.1230   -9.3540 C.3   146  THR146      0.0376
    177  N          0.7810  -24.5670   -8.7520 N.am  147  ASP147     -0.1973
    178  CA         1.8490  -25.1060   -7.9140 C.3   147  ASP147      0.1709
    179  C          1.3550  -26.1550   -6.9400 C.2   147  ASP147      0.2293
    180  O          1.0450  -25.8570   -5.7880 O.2   147  ASP147     -0.2864
    181  CB         2.6200  -24.0150   -7.1610 C.3   147  ASP147      0.1436
    182  CG         4.0220  -24.4540   -6.7920 C.2   147  ASP147      0.3671
    183  OD1        4.2690  -25.6870   -6.7500 O.co2 147  ASP147     -0.2456
    184  OD2        4.8770  -23.5730   -6.5340 O.co2 147  ASP147     -0.2456
    185  N          3.1570  -28.5980   -5.8610 N.3   149  GLY149     -0.1210
    186  CA         4.3430  -29.2010   -5.2590 C.3   149  GLY149      0.1956
    187  C          4.2320  -29.5140   -3.7720 C.2   149  GLY149      0.2611
    188  O          4.9900  -30.3230   -3.2500 O.2   149  GLY149     -0.2717
    189  N          3.3000  -28.8680   -3.0820 N.am  150  MET150     -0.1979
    190  CA         3.1560  -29.0610   -1.6440 C.3   150  MET150      0.1605
    191  C          2.0270  -30.0220   -1.3040 C.2   150  MET150      0.2287
    192  O          1.8820  -30.4160   -0.1510 O.2   150  MET150     -0.2864
    193  CB         2.8990  -27.7140   -0.9610 C.3   150  MET150      0.0413
    194  CG         3.4800  -27.5790    0.4310 C.3   150  MET150      0.0598
    195  SD         5.2490  -27.2800    0.3580 S.3   150  MET150     -0.1393
    196  CE         5.2970  -25.5100    0.0550 C.3   150  MET150      0.0692
    197  N          4.6480  -11.5100  -17.4570 N.3   291  PHE291     -0.1241
    198  CA         5.7450  -12.2780  -16.8790 C.3   291  PHE291      0.1605
    199  C          7.0410  -11.4660  -16.8040 C.2   291  PHE291      0.2264
    200  O          7.3570  -10.6930  -17.7050 O.2   291  PHE291     -0.2867
    201  CB         5.9600  -13.5670  -17.6770 C.3   291  PHE291      0.0534
    202  CG         4.7280  -14.4310  -17.7600 C.ar  291  PHE291     -0.0203
    203  CD1        4.3660  -15.2500  -16.6950 C.ar  291  PHE291     -0.0042
    204  CD2        3.9040  -14.3810  -18.8710 C.ar  291  PHE291     -0.0042
    205  CE1        3.2320  -16.0380  -16.7600 C.ar  291  PHE291     -0.0003
    206  CE2        2.7630  -15.1610  -18.9390 C.ar  291  PHE291     -0.0003
    207  CZ         2.4240  -15.9860  -17.8730 C.ar  291  PHE291     -0.0000
    208  N         12.8510  -13.5400  -17.2380 N.3   295  PHE295     -0.1241
    209  CA        12.5080  -14.8210  -17.8630 C.3   295  PHE295      0.1605
    210  C         12.2560  -14.6460  -19.3610 C.2   295  PHE295      0.2264
    211  O         12.8620  -15.3280  -20.1820 O.2   295  PHE295     -0.2867
    212  CB        11.3290  -15.4990  -17.1280 C.3   295  PHE295      0.0534
    213  CG        11.5590  -15.6750  -15.6380 C.ar  295  PHE295     -0.0203
    214  CD1       12.6650  -16.3730  -15.1720 C.ar  295  PHE295     -0.0042
    215  CD2       10.6930  -15.1220  -14.7170 C.ar  295  PHE295     -0.0042
    216  CE1       12.8970  -16.5140  -13.8040 C.ar  295  PHE295     -0.0003
    217  CE2       10.9090  -15.2640  -13.3590 C.ar  295  PHE295     -0.0003
    218  CZ        12.0220  -15.9600  -12.9000 C.ar  295  PHE295     -0.0000
@<TRIPOS>BOND
     1   128   126   ar
     2   128   129   ar
     3   126   124   ar
     4   130   129    1
     5   129   127   ar
     6   124   123    1
     7   124   125   ar
     8   123   120    1
     9    58    59    1
    10   127   125   ar
    11    61    60    2
    12    59    60    1
    13    59    62    1
    14     7     5    1
    15   105   104    2
    16   211   210    2
    17   119   120    1
    18   119   112   am
    19   120   121    1
    20   122   121    2
    21   102   103    1
    22     1     2    1
    23   104   103    1
    24   104   110   am
    25   121   131   am
    26   210   209    1
    27   111   112    1
    28   111   110    1
    29   111   114    1
    30     8     6    1
    31     5     2    1
    32     5     6    1
    33   112   113    2
    34   206   204   ar
    35   206   207   ar
    36   103   106    1
    37   204   202   ar
    38    54    53    2
    39     2     3    1
    40    53    52    1
    41   114   115    1
    42   117   116   ar
    43   115   116    1
    44   131   132    1
    45    63    64    1
    46   207   205   ar
    47   209   208    1
    48   209   212    1
    49    66    65    2
    50   116   118   ar
    51   202   201    1
    52   202   203   ar
    53   200   199    2
    54   201   198    1
    55   132   133    1
    56   132   135    1
    57   106   107    1
    58   106   108    1
    59   107   109    1
    60   197   198    1
    61   133   134    2
    62    65    64    1
    63    52    51    1
    64    52    55    1
    65    23    21    1
    66     3     9   am
    67     3     4    2
    68   212   213    1
    69    64    67    1
    70    56    55    1
    71   198   199    1
    72   205   203   ar
    73     9    10    1
    74    55    57    1
    75    21    20    2
    76    21    22    1
    77   137   135    1
    78   135   136    1
    79    12    11    2
    80    20    19    1
    81    67    68    1
    82   213   214   ar
    83   213   215   ar
    84    68    69    1
    85    10    11    1
    86   214   216   ar
    87    11    13   am
    88   100    99    1
    89   215   217   ar
    90    18    19    1
    91    18    17    1
    92    97    96    1
    93    97    98    2
    94    69    70    1
    95   216   218   ar
    96    48    49    2
    97    48    47    1
    98    96    99    1
    99    96    95    1
   100    13    14    1
   101    99   101    1
   102   217   218   ar
   103    50    47    1
   104    47    46    1
   105    17    14    1
   106    14    15    1
   107    70    71    1
   108   168   167    1
   109    37    36    2
   110   166   167    1
   111   166   163    1
   112    46    36   am
   113   167   169    1
   114    15    24   am
   115    15    16    2
   116   164   163    1
   117   164   165    2
   118    36    35    1
   119    24    25    1
   120   175   174    1
   121   163   162    1
   122    84    85   ar
   123    84    82   ar
   124    89    88    2
   125    85    83   ar
   126    88    87    1
   127    93    92   ar
   128   174   176    1
   129   174   171    1
   130    90    87    1
   131    90    91    1
   132    27    26    2
   133    35    38    1
   134    35    34    1
   135    82    79   ar
   136    25    26    1
   137    83    81   ar
   138    38    39    1
   139    87    86    1
   140    92    91    1
   141    92    94   ar
   142   171   170    1
   143   171   172    1
   144    26    28   am
   145    34    30   am
   146   177   172   am
   147   177   178    1
   148    41    39   ar
   149    41    43   ar
   150    79    81   ar
   151    79    77   ar
   152    81    80   ar
   153    30    31    2
   154    30    29    1
   155    39    40   ar
   156   172   173    2
   157    28    29    1
   158   178   181    1
   159   178   179    1
   160    75    74    2
   161    74    73    1
   162    29    32    1
   163    43    44   ar
   164   149   148    2
   165   181   182    1
   166   157   156    2
   167    77    76    1
   168    77    78   ar
   169    80    78   ar
   170    40    42   ar
   171   179   180    2
   172   182   183   ar
   173   182   184   ar
   174   156   155    1
   175    76    73    1
   176    73    72    1
   177   148   147    1
   178   148   154   am
   179   155   154    1
   180   155   158    1
   181    44    42   ar
   182    44    45    1
   183    32    33    1
   184   160   159    2
   185   185   186    1
   186   147   150    1
   187   147   146    1
   188   150   151    1
   189   186   187    1
   190   158   159    1
   191   159   161   am
   192   153   151   ar
   193   151   152   ar
   194   187   188    2
   195   187   189   am
   196   189   190    1
   197   145   143   ar
   198   141   140    2
   199   190   191    1
   200   190   193    1
   201   142   143    1
   202   142   139    1
   203   143   144   ar
   204   191   192    2
   205   140   139    1
   206   193   194    1
   207   139   138    1
   208   196   195    1
   209   195   194    1
