@<TRIPOS>MOLECULE
tmp/3a9bA01.pdb
 148 147 0 0 0
SMALL
GASTEIGER

@<TRIPOS>ATOM
      1  N         -5.8780   -2.1460   -8.2790 N.3    85  TYR85      -0.1241
      2  CA        -6.0470   -3.4350   -7.6090 C.3    85  TYR85       0.1605
      3  C         -7.2290   -4.2100   -8.1960 C.2    85  TYR85       0.2264
      4  O         -8.3240   -4.2460   -7.6130 O.2    85  TYR85      -0.2867
      5  CB        -6.2220   -3.2010   -6.1020 C.3    85  TYR85       0.0534
      6  CG        -6.3970   -4.4390   -5.2480 C.ar   85  TYR85      -0.0201
      7  CD1       -5.5890   -5.5620   -5.4020 C.ar   85  TYR85      -0.0009
      8  CD2       -7.3520   -4.4600   -4.2370 C.ar   85  TYR85      -0.0009
      9  CE1       -5.7650   -6.6820   -4.5900 C.ar   85  TYR85       0.0417
     10  CE2       -7.5320   -5.5640   -3.4270 C.ar   85  TYR85       0.0417
     11  CZ        -6.7340   -6.6710   -3.5960 C.ar   85  TYR85       0.1957
     12  OH        -6.9050   -7.7730   -2.7870 O.3    85  TYR85      -0.2866
     13  N         -4.4000  -17.0000   -3.7980 N.3    93  ALA93      -0.1231
     14  CA        -4.2230  -17.9150   -2.6690 C.3    93  ALA93       0.1694
     15  C         -5.3120  -17.7930   -1.5920 C.2    93  ALA93       0.2591
     16  O         -5.3320  -18.5870   -0.6510 O.2    93  ALA93      -0.2718
     17  CB        -2.8230  -17.7570   -2.0670 C.3    93  ALA93       0.0304
     18  N         -6.2200  -16.8260   -1.7420 N.am   94  ALA94      -0.1980
     19  CA        -7.3190  -16.6440   -0.7870 C.3    94  ALA94       0.1597
     20  C         -8.4470  -17.6220   -1.0910 C.2    94  ALA94       0.2287
     21  O         -8.6930  -17.9610   -2.2480 O.2    94  ALA94      -0.2864
     22  CB        -7.8390  -15.2140   -0.8250 C.3    94  ALA94       0.0319
     23  N         -1.0240   -8.0160   -3.2490 N.3   139  ASP139     -0.1239
     24  CA        -1.4230   -9.4280   -3.1560 C.3   139  ASP139      0.1674
     25  C         -1.3650  -10.1590   -4.4910 C.2   139  ASP139      0.2266
     26  O         -2.1900  -11.0280   -4.7580 O.2   139  ASP139     -0.2867
     27  CB        -2.8180   -9.5970   -2.5370 C.3   139  ASP139      0.1410
     28  CG        -3.1260  -11.0510   -2.1880 C.2   139  ASP139      0.3668
     29  OD1       -2.1870  -11.8170   -1.9060 O.co2 139  ASP139     -0.2456
     30  OD2       -4.3090  -11.4420   -2.2020 O.co2 139  ASP139     -0.2456
     31  N          2.5410  -14.3310   -4.6970 N.3   143  ASN143     -0.1240
     32  CA         1.9280  -15.6470   -4.8460 C.3   143  ASN143      0.1653
     33  C          2.6930  -16.5540   -5.8130 C.2   143  ASN143      0.2266
     34  O          2.6600  -17.7750   -5.6770 O.2   143  ASN143     -0.2867
     35  CB         0.4720  -15.5250   -5.2860 C.3   143  ASN143      0.1155
     36  CG        -0.3940  -14.8270   -4.2600 C.2   143  ASN143      0.2627
     37  OD1       -0.8980  -13.7140   -4.4970 O.2   143  ASN143     -0.2716
     38  ND2       -0.5750  -15.4630   -3.1220 N.am  143  ASN143     -0.0877
     39  N          5.5890  -18.0170   -3.4930 N.3   146  THR146     -0.1203
     40  CA         5.3170  -18.9130   -2.3670 C.3   146  THR146      0.1994
     41  C          4.0660  -19.7780   -2.5010 C.2   146  THR146      0.2617
     42  O          3.8870  -20.7020   -1.7060 O.2   146  THR146     -0.2717
     43  CB         5.1960  -18.1500   -1.0370 C.3   146  THR146      0.1784
     44  OG1        4.0470  -17.3010   -1.1000 O.3   146  THR146     -0.2211
     45  CG2        6.4380  -17.3080   -0.7570 C.3   146  THR146      0.0376
     46  N          3.2060  -19.4960   -3.4800 N.am  147  ASN147     -0.1974
     47  CA         1.9040  -20.1620   -3.5580 C.3   147  ASN147      0.1688
     48  C          1.6590  -20.8970   -4.8680 C.2   147  ASN147      0.2292
     49  O          0.5140  -21.1130   -5.2470 O.2   147  ASN147     -0.2864
     50  CB         0.7730  -19.1710   -3.2450 C.3   147  ASN147      0.1181
     51  CG         0.6950  -18.8360   -1.7800 C.2   147  ASN147      0.2629
     52  OD1        0.8740  -19.7090   -0.9280 O.2   147  ASN147     -0.2716
     53  ND2        0.4270  -17.5720   -1.4670 N.am  147  ASN147     -0.0877
     54  N          5.5970   -7.8060    1.8950 N.3   184  HIS184     -0.1241
     55  CA         6.1790   -7.3050    3.1390 C.3   184  HIS184      0.1621
     56  C          7.2460   -8.3020    3.5850 C.2   184  HIS184      0.2264
     57  O          7.3440   -9.4000    3.0290 O.2   184  HIS184     -0.2867
     58  CB         5.1060   -7.0810    4.2190 C.3   184  HIS184      0.0745
     59  CG         4.4550   -8.3400    4.6920 C.ar  184  HIS184      0.0817
     60  ND1        4.8670   -9.0230    5.8180 N.ar  184  HIS184     -0.2268
     61  CD2        3.3990   -9.0280    4.1980 C.ar  184  HIS184      0.1154
     62  CE1        4.0970  -10.0830    5.9870 C.ar  184  HIS184      0.1986
     63  NE2        3.2020  -10.1110    5.0170 N.ar  184  HIS184     -0.2212
     64  N          7.6260  -10.3420    5.9940 N.3   186  GLY186     -0.1210
     65  CA         7.1630  -11.6490    6.4670 C.3   186  GLY186      0.1956
     66  C          6.7040  -12.5750    5.3620 C.2   186  GLY186      0.2611
     67  O          6.5210  -13.7720    5.5880 O.2   186  GLY186     -0.2717
     68  N          6.5190  -12.0280    4.1630 N.am  187  TRP187     -0.1976
     69  CA         6.1350  -12.8220    3.0070 C.3   187  TRP187      0.1640
     70  C          7.3710  -13.1470    2.1680 C.2   187  TRP187      0.2290
     71  O          7.7300  -14.3170    1.9980 O.2   187  TRP187     -0.2864
     72  CB         5.0610  -12.0770    2.1880 C.3   187  TRP187      0.0576
     73  CG         4.3870  -12.8880    1.1200 C.ar  187  TRP187      0.0006
     74  CD1        4.8340  -14.0440    0.5470 C.ar  187  TRP187      0.0946
     75  CD2        3.1510  -12.5690    0.4670 C.ar  187  TRP187      0.0152
     76  NE1        3.9460  -14.4740   -0.4130 N.ar  187  TRP187     -0.2442
     77  CE2        2.9040  -13.5890   -0.4810 C.ar  187  TRP187      0.0810
     78  CE3        2.2140  -11.5280    0.6030 C.ar  187  TRP187      0.0012
     79  CZ2        1.7590  -13.6010   -1.2920 C.ar  187  TRP187      0.0191
     80  CZ3        1.0710  -11.5450   -0.2030 C.ar  187  TRP187      0.0001
     81  CH2        0.8630  -12.5730   -1.1430 C.ar  187  TRP187      0.0015
     82  N         12.1460  -13.8990    3.5700 N.3   190  TRP190     -0.1241
     83  CA        12.8470  -15.1540    3.8600 C.3   190  TRP190      0.1605
     84  C         13.9490  -15.3720    2.8420 C.2   190  TRP190      0.2264
     85  O         13.7820  -15.0300    1.6710 O.2   190  TRP190     -0.2867
     86  CB        11.8640  -16.3250    3.8420 C.3   190  TRP190      0.0550
     87  CG        10.7650  -16.1350    4.8280 C.ar  190  TRP190      0.0003
     88  CD1        9.5110  -15.6490    4.5790 C.ar  190  TRP190      0.0946
     89  CD2       10.8210  -16.4010    6.2360 C.ar  190  TRP190      0.0152
     90  NE1        8.7880  -15.6020    5.7430 N.ar  190  TRP190     -0.2442
     91  CE2        9.5650  -16.0560    6.7750 C.ar  190  TRP190      0.0810
     92  CE3       11.8140  -16.9030    7.0930 C.ar  190  TRP190      0.0012
     93  CZ2        9.2710  -16.1890    8.1380 C.ar  190  TRP190      0.0191
     94  CZ3       11.5230  -17.0350    8.4480 C.ar  190  TRP190      0.0001
     95  CH2       10.2600  -16.6750    8.9560 C.ar  190  TRP190      0.0015
     96  N          2.1240   -2.7780    2.3040 N.3   224  VAL224     -0.1231
     97  CA         0.7750   -2.3180    2.0030 C.3   224  VAL224      0.1692
     98  C         -0.2500   -3.1660    2.7580 C.2   224  VAL224      0.2593
     99  O         -0.2550   -4.3920    2.6580 O.2   224  VAL224     -0.2718
    100  CB         0.5030   -2.3440    0.4780 C.3   224  VAL224      0.0266
    101  CG1       -0.9420   -1.9760    0.1860 C.3   224  VAL224      0.0020
    102  CG2        1.4600   -1.3930   -0.2510 C.3   224  VAL224      0.0020
    103  N         -1.1010   -2.4850    3.5310 N.am  225  SER225     -0.1938
    104  CA        -2.1690   -3.1350    4.3200 C.3   225  SER225      0.2055
    105  C         -1.6670   -3.9950    5.4770 C.2   225  SER225      0.2643
    106  O         -2.4620   -4.6610    6.1420 O.2   225  SER225     -0.2714
    107  CB        -3.1410   -3.9400    3.4400 C.3   225  SER225      0.2130
    108  OG        -3.6520   -3.1240    2.4100 O.3   225  SER225     -0.2179
    109  N         -0.3570   -3.9870    5.7210 N.am  226  ASN226     -0.1971
    110  CA         0.1820   -4.7580    6.8230 C.3   226  ASN226      0.1688
    111  C          0.5570   -3.8390    7.9960 C.2   226  ASN226      0.2292
    112  O          0.1730   -2.6630    8.0180 O.2   226  ASN226     -0.2864
    113  CB         1.3180   -5.6810    6.3540 C.3   226  ASN226      0.1181
    114  CG         1.3590   -6.9820    7.1370 C.2   226  ASN226      0.2629
    115  OD1        1.7240   -6.9940    8.3100 O.2   226  ASN226     -0.2716
    116  ND2        0.9850   -8.0800    6.4900 N.am  226  ASN226     -0.0877
    117  N          3.1030  -14.1050   12.3010 N.3   283  TRP283     -0.1227
    118  CA         3.3580  -13.0690   11.3040 C.3   283  TRP283      0.1737
    119  C          2.2540  -12.9900   10.2640 C.2   283  TRP283      0.2596
    120  O          1.9840  -11.9130    9.7440 O.2   283  TRP283     -0.2718
    121  CB         4.6910  -13.3110   10.6000 C.3   283  TRP283      0.0564
    122  CG         5.4070  -12.0630   10.2040 C.ar  283  TRP283      0.0003
    123  CD1        4.8900  -10.8040   10.0580 C.ar  283  TRP283      0.0946
    124  CD2        6.8010  -11.9640    9.9260 C.ar  283  TRP283      0.0152
    125  NE1        5.8900   -9.9290    9.7080 N.ar  283  TRP283     -0.2442
    126  CE2        7.0720  -10.6140    9.6150 C.ar  283  TRP283      0.0810
    127  CE3        7.8510  -12.8950    9.9010 C.ar  283  TRP283      0.0012
    128  CZ2        8.3530  -10.1700    9.2700 C.ar  283  TRP283      0.0191
    129  CZ3        9.1220  -12.4570    9.5650 C.ar  283  TRP283      0.0001
    130  CH2        9.3640  -11.1040    9.2530 C.ar  283  TRP283      0.0015
    131  N          1.6240  -14.1280    9.9750 N.am  284  GLY284     -0.1957
    132  CA         0.5840  -14.2190    8.9520 C.3   284  GLY284      0.1869
    133  C         -0.7890  -13.7130    9.3570 C.2   284  GLY284      0.2309
    134  O         -1.7230  -13.7770    8.5720 O.2   284  GLY284     -0.2863
    135  N         -3.3410  -10.9030    9.6750 N.3   286  TRP286     -0.1241
    136  CA        -3.4490   -9.6610    8.9080 C.3   286  TRP286      0.1605
    137  C         -4.7860   -8.9340    9.0650 C.2   286  TRP286      0.2264
    138  O         -4.8760   -7.7590    8.7010 O.2   286  TRP286     -0.2867
    139  CB        -3.2130   -9.9450    7.4130 C.3   286  TRP286      0.0550
    140  CG        -4.1640  -10.9780    6.8570 C.ar  286  TRP286      0.0003
    141  CD1       -3.9490  -12.3280    6.7880 C.ar  286  TRP286      0.0946
    142  CD2       -5.4720  -10.7530    6.3090 C.ar  286  TRP286      0.0152
    143  NE1       -5.0400  -12.9540    6.2370 N.ar  286  TRP286     -0.2442
    144  CE2       -5.9880  -12.0150    5.9310 C.ar  286  TRP286      0.0810
    145  CE3       -6.2560   -9.6110    6.0960 C.ar  286  TRP286      0.0012
    146  CZ2       -7.2550  -12.1680    5.3550 C.ar  286  TRP286      0.0191
    147  CZ3       -7.5240   -9.7650    5.5300 C.ar  286  TRP286      0.0001
    148  CH2       -8.0050  -11.0390    5.1620 C.ar  286  TRP286      0.0015
@<TRIPOS>BOND
     1     1     2    1
     2     3     4    2
     3     3     2    1
     4     2     5    1
     5     5     6    1
     6    33    34    2
     7    33    32    1
     8     7     6   ar
     9     7     9   ar
    10    35    32    1
    11    35    36    1
    12     6     8   ar
    13    49    48    2
    14    48    47    1
    15    32    31    1
    16    26    25    2
    17     9    11   ar
    18    37    36    2
    19    25    24    1
    20    36    38   am
    21     8    10   ar
    22    13    14    1
    23    11    10   ar
    24    11    12    1
    25    47    46    1
    26    47    50    1
    27    39    40    1
    28    46    41   am
    29    23    24    1
    30    50    51    1
    31    24    27    1
    32    14    17    1
    33    14    15    1
    34    27    28    1
    35    41    40    1
    36    41    42    2
    37    40    43    1
    38    21    20    2
    39    30    28   ar
    40    28    29   ar
    41    51    53   am
    42    51    52    2
    43    18    15   am
    44    18    19    1
    45    15    16    2
    46    79    81   ar
    47    79    77   ar
    48    81    80   ar
    49    44    43    1
    50    20    19    1
    51    43    45    1
    52    22    19    1
    53    77    76   ar
    54    77    75   ar
    55    76    74   ar
    56   102   100    1
    57    80    78   ar
    58   101   100    1
    59    75    78   ar
    60    75    73   ar
    61   100    97    1
    62    74    73   ar
    63    73    72    1
    64    85    84    2
    65    54    55    1
    66    71    70    2
    67    97    96    1
    68    97    98    1
    69    70    69    1
    70    72    69    1
    71   108   107    1
    72    99    98    2
    73    98   103   am
    74    84    83    1
    75    69    68    1
    76    57    56    2
    77    55    56    1
    78    55    58    1
    79   107   104    1
    80   103   104    1
    81    82    83    1
    82    86    83    1
    83    86    87    1
    84    68    66   am
    85    61    59   ar
    86    61    63   ar
    87    58    59    1
    88   104   105    1
    89    88    87   ar
    90    88    90   ar
    91    59    60   ar
    92    87    89   ar
    93    63    62   ar
    94   148   146   ar
    95   148   147   ar
    96   146   144   ar
    97    66    67    2
    98    66    65    1
    99   105   109   am
   100   105   106    2
   101   147   145   ar
   102   109   110    1
   103    90    91   ar
   104    60    62   ar
   105   144   143   ar
   106   144   142   ar
   107    64    65    1
   108   145   142   ar
   109    89    91   ar
   110    89    92   ar
   111   143   141   ar
   112   142   140   ar
   113   113   110    1
   114   113   114    1
   115   116   114   am
   116    91    93   ar
   117   141   140   ar
   118   110   111    1
   119   140   139    1
   120    92    94   ar
   121   114   115    2
   122   139   136    1
   123   111   112    2
   124    93    95   ar
   125    94    95   ar
   126   134   133    2
   127   138   137    2
   128   136   137    1
   129   136   135    1
   130   132   133    1
   131   132   131    1
   132   130   128   ar
   133   130   129   ar
   134   128   126   ar
   135   129   127   ar
   136   126   125   ar
   137   126   124   ar
   138   125   123   ar
   139   120   119    2
   140   127   124   ar
   141   124   122   ar
   142   131   119   am
   143   123   122   ar
   144   122   121    1
   145   119   118    1
   146   121   118    1
   147   118   117    1
