@<TRIPOS>MOLECULE
tmp/3a9bA00.pdb
 97 92 0 0 0
SMALL
GASTEIGER

@<TRIPOS>ATOM
      1  N         -7.8360    3.9300   -3.3410 N.3    50  TRP50      -0.1241
      2  CA        -7.8270    2.6060   -3.9540 C.3    50  TRP50       0.1605
      3  C         -8.8520    2.4940   -5.0720 C.2    50  TRP50       0.2264
      4  O        -10.0140    2.8650   -4.9080 O.2    50  TRP50      -0.2867
      5  CB        -8.1140    1.5400   -2.9040 C.3    50  TRP50       0.0550
      6  CG        -7.0080    1.3370   -1.9100 C.ar   50  TRP50       0.0003
      7  CD1       -6.5040    2.2490   -1.0330 C.ar   50  TRP50       0.0946
      8  CD2       -6.2820    0.1230   -1.6910 C.ar   50  TRP50       0.0152
      9  NE1       -5.4970    1.6770   -0.2890 N.ar   50  TRP50      -0.2442
     10  CE2       -5.3510    0.3680   -0.6650 C.ar   50  TRP50       0.0810
     11  CE3       -6.3420   -1.1520   -2.2660 C.ar   50  TRP50       0.0012
     12  CZ2       -4.4690   -0.6190   -0.2020 C.ar   50  TRP50       0.0191
     13  CZ3       -5.4680   -2.1340   -1.8030 C.ar   50  TRP50       0.0001
     14  CH2       -4.5580   -1.8630   -0.7750 C.ar   50  TRP50       0.0015
     15  N        -10.2670   -0.4250   -6.6270 N.3    52  SER52      -0.1217
     16  CA       -10.3270   -1.8770   -6.4380 C.3    52  SER52       0.1889
     17  C        -11.4290   -2.5500   -7.2430 C.2    52  SER52       0.2288
     18  O        -11.6540   -3.7470   -7.1000 O.2    52  SER52      -0.2866
     19  CB       -10.4580   -2.2260   -4.9460 C.3    52  SER52       0.2089
     20  OG        -9.4330   -1.5790   -4.2090 O.3    52  SER52      -0.2183
     21  N         -5.8780   -2.1460   -8.2790 N.3    85  TYR85      -0.1241
     22  CA        -6.0470   -3.4350   -7.6090 C.3    85  TYR85       0.1605
     23  C         -7.2290   -4.2100   -8.1960 C.2    85  TYR85       0.2264
     24  O         -8.3240   -4.2460   -7.6130 O.2    85  TYR85      -0.2867
     25  CB        -6.2220   -3.2010   -6.1020 C.3    85  TYR85       0.0534
     26  CG        -6.3970   -4.4390   -5.2480 C.ar   85  TYR85      -0.0201
     27  CD1       -5.5890   -5.5620   -5.4020 C.ar   85  TYR85      -0.0009
     28  CD2       -7.3520   -4.4600   -4.2370 C.ar   85  TYR85      -0.0009
     29  CE1       -5.7650   -6.6820   -4.5900 C.ar   85  TYR85       0.0417
     30  CE2       -7.5320   -5.5640   -3.4270 C.ar   85  TYR85       0.0417
     31  CZ        -6.7340   -6.6710   -3.5960 C.ar   85  TYR85       0.1957
     32  OH        -6.9050   -7.7730   -2.7870 O.3    85  TYR85      -0.2866
     33  N         -7.8670  -12.4110   -9.0740 N.3    90  ARG90      -0.1245
     34  CA        -7.2200  -11.6570   -8.0160 C.3    90  ARG90       0.1563
     35  C         -7.1030  -12.4920   -6.7410 C.2    90  ARG90       0.2260
     36  O         -7.9590  -13.3390   -6.4520 O.2    90  ARG90      -0.2867
     37  CB        -8.0300  -10.3870   -7.7210 C.3    90  ARG90       0.0307
     38  CG        -7.1800   -9.2270   -7.2350 C.3    90  ARG90       0.0489
     39  CD        -8.0100   -7.9780   -7.0190 C.3    90  ARG90       0.2205
     40  NE        -8.8760   -8.1350   -5.8580 N.pl3  90  ARG90      -0.0865
     41  CZ        -9.8150   -7.2750   -5.5050 C.cat  90  ARG90       0.5346
     42  NH1      -10.0330   -6.1790   -6.2200 N.pl3  90  ARG90       0.1354
     43  NH2      -10.5480   -7.5280   -4.4280 N.pl3  90  ARG90       0.1354
     44  N        -13.0740  -10.9870   -3.8180 N.3    98  ASP98      -0.1239
     45  CA       -14.0960  -10.0650   -4.2820 C.3    98  ASP98       0.1674
     46  C        -13.7790   -9.4830   -5.6610 C.2    98  ASP98       0.2266
     47  O        -14.5880   -8.7220   -6.2150 O.2    98  ASP98      -0.2867
     48  CB       -14.2140   -8.9220   -3.2730 C.3    98  ASP98       0.1410
     49  CG       -15.5830   -8.2810   -3.2760 C.2    98  ASP98       0.3668
     50  OD1      -16.5540   -8.9020   -3.7680 O.co2  98  ASP98      -0.2456
     51  OD2      -15.6870   -7.1450   -2.7710 O.co2  98  ASP98      -0.2456
     52  N         -1.1010   -2.4850    3.5310 N.3   225  SER225     -0.1217
     53  CA        -2.1690   -3.1350    4.3200 C.3   225  SER225      0.1889
     54  C         -1.6670   -3.9950    5.4770 C.2   225  SER225      0.2288
     55  O         -2.4620   -4.6610    6.1420 O.2   225  SER225     -0.2866
     56  CB        -3.1410   -3.9400    3.4400 C.3   225  SER225      0.2089
     57  OG        -3.6520   -3.1240    2.4100 O.3   225  SER225     -0.2183
     58  N         -2.9070    1.6390    2.9290 N.3   317  LYS317     -0.1231
     59  CA        -4.1840    1.1710    3.4630 C.3   317  LYS317      0.1678
     60  C         -4.7590    2.2320    4.4090 C.2   317  LYS317      0.2434
     61  O         -4.0820    2.6280    5.3610 O.2   317  LYS317     -0.2733
     62  CB        -3.9630   -0.1480    4.2040 C.3   317  LYS317      0.0284
     63  CG        -5.0920   -0.5940    5.1210 C.3   317  LYS317      0.0035
     64  CD        -6.3360   -1.0400    4.3590 C.3   317  LYS317      0.0206
     65  CE        -7.4780   -1.3160    5.3240 C.3   317  LYS317      0.1093
     66  NZ        -8.6240   -1.9680    4.6370 N.3   317  LYS317     -0.1314
     67  N         -5.9930    2.7260    4.1490 N.am  318  PRO318     -0.2729
     68  CA        -6.5340    3.7630    5.0360 C.3   318  PRO318      0.1401
     69  C         -7.0860    3.1780    6.3340 C.2   318  PRO318      0.2269
     70  O         -8.0720    2.4400    6.3200 O.2   318  PRO318     -0.2865
     71  CB        -7.6320    4.4310    4.1790 C.3   318  PRO318      0.0296
     72  CG        -7.3800    3.9230    2.7570 C.3   318  PRO318      0.0237
     73  CD        -6.8720    2.5230    2.9880 C.3   318  PRO318      0.0939
     74  N        -10.8200    1.5580    7.5780 N.3   321  GLU321     -0.1231
     75  CA       -11.5350    0.7510    6.5990 C.3   321  GLU321      0.1699
     76  C        -11.2700   -0.7090    6.9440 C.2   321  GLU321      0.2592
     77  O        -10.1140   -1.1390    6.9510 O.2   321  GLU321     -0.2718
     78  CB       -11.0850    1.1060    5.1780 C.3   321  GLU321      0.0402
     79  CG       -11.4330    2.5490    4.8210 C.3   321  GLU321      0.1161
     80  CD       -11.0340    2.9840    3.4200 C.2   321  GLU321      0.3649
     81  OE1      -10.4610    2.1720    2.6480 O.co2 321  GLU321     -0.2457
     82  OE2      -11.2860    4.1650    3.0990 O.co2 321  GLU321     -0.2457
     83  N        -12.3240   -1.4520    7.2890 N.am  322  SER322     -0.1952
     84  CA       -12.1740   -2.8240    7.7620 C.3   322  SER322      0.1924
     85  C        -11.4500   -3.7090    6.7500 C.2   322  SER322      0.2314
     86  O        -11.6120   -3.5440    5.5370 O.2   322  SER322     -0.2863
     87  CB       -13.5520   -3.4180    8.0380 C.3   322  SER322      0.2116
     88  OG       -13.4350   -4.7400    8.5190 O.3   322  SER322     -0.2180
     89  N        -15.5750   -5.7990    4.8530 N.3   349  ALA349     -0.1231
     90  CA       -14.3970   -5.1860    4.2510 C.3   349  ALA349      0.1694
     91  C        -14.7560   -3.8290    3.6480 C.2   349  ALA349      0.2592
     92  O        -15.7740   -3.6900    2.9590 O.2   349  ALA349     -0.2718
     93  CB       -13.8070   -6.0940    3.1870 C.3   349  ALA349      0.0304
     94  N        -13.9270   -2.8270    3.9310 N.am  350  GLY350     -0.1957
     95  CA       -14.1210   -1.4820    3.3860 C.3   350  GLY350      0.1869
     96  C        -15.0310   -0.6010    4.2150 C.2   350  GLY350      0.2309
     97  O        -14.9990    0.6260    4.0890 O.2   350  GLY350     -0.2863
@<TRIPOS>BOND
     1    33    34    1
     2    21    22    1
     3    23    24    2
     4    23    22    1
     5    34    37    1
     6    34    35    1
     7    37    38    1
     8    22    25    1
     9    17    18    2
    10    17    16    1
    11    38    39    1
    12    39    40    1
    13    35    36    2
    14    15    16    1
    15    16    19    1
    16    42    41    1
    17    47    46    2
    18    25    26    1
    19    40    41    2
    20    46    45    1
    21    41    43    1
    22    27    26   ar
    23    27    29   ar
    24    26    28   ar
    25     3     4    2
    26     3     2    1
    27    19    20    1
    28    29    31   ar
    29    45    44    1
    30    45    48    1
    31    28    30   ar
    32     2     1    1
    33     2     5    1
    34    50    49   ar
    35    31    30   ar
    36    31    32    1
    37    49    48    1
    38    49    51   ar
    39     5     6    1
    40    11    13   ar
    41    11     8   ar
    42     6     8   ar
    43     6     7   ar
    44    13    14   ar
    45     8    10   ar
    46     7     9   ar
    47    14    12   ar
    48    10     9   ar
    49    10    12   ar
    50    57    56    1
    51    81    80   ar
    52    72    73    1
    53    72    71    1
    54    58    59    1
    55    92    91    2
    56    73    67    1
    57    82    80   ar
    58    93    90    1
    59    95    94    1
    60    95    96    1
    61    80    79    1
    62    56    53    1
    63    59    62    1
    64    59    60    1
    65    52    53    1
    66    91    94   am
    67    91    90    1
    68    97    96    2
    69    67    60   am
    70    67    68    1
    71    71    68    1
    72    62    63    1
    73    90    89    1
    74    53    54    1
    75    64    63    1
    76    64    65    1
    77    60    61    2
    78    66    65    1
    79    79    78    1
    80    68    69    1
    81    78    75    1
    82    54    55    2
    83    86    85    2
    84    70    69    2
    85    75    76    1
    86    75    74    1
    87    85    84    1
    88    76    77    2
    89    76    83   am
    90    83    84    1
    91    84    87    1
    92    87    88    1
