@<TRIPOS>MOLECULE
tmp/3a9cB00.pdb
 151 143 0 0 0
SMALL
GASTEIGER

@<TRIPOS>ATOM
      1  N         66.9200   17.6830   11.9270 N.3    28  ALA28      -0.1245
      2  CA        67.4440   18.0410   13.2380 C.3    28  ALA28       0.1562
      3  C         68.6950   17.2170   13.5740 C.2    28  ALA28       0.2260
      4  O         69.6860   17.7540   14.0600 O.2    28  ALA28      -0.2867
      5  CB        66.3650   17.8400   14.3070 C.3    28  ALA28       0.0290
      6  N         67.0300    8.2310   18.1760 N.3   118  LEU118     -0.1245
      7  CA        65.6930    7.7280   17.8860 C.3   118  LEU118      0.1561
      8  C         65.4420    6.3870   18.5400 C.2   118  LEU118      0.2260
      9  O         64.3900    6.1630   19.1320 O.2   118  LEU118     -0.2867
     10  CB        65.4730    7.6450   16.3820 C.3   118  LEU118      0.0270
     11  CG        65.3890    9.0460   15.7620 C.3   118  LEU118      0.0019
     12  CD1       65.2990    8.9270   14.2450 C.3   118  LEU118      0.0001
     13  CD2       64.1820    9.8050   16.3320 C.3   118  LEU118      0.0001
     14  N         49.9300   12.6400   15.8980 N.3   138  HIS138     -0.1226
     15  CA        49.7430   13.7720   14.9950 C.3   138  HIS138      0.1752
     16  C         50.9760   13.9990   14.1350 C.2   138  HIS138      0.2596
     17  O         52.1150   13.7740   14.5700 O.2   138  HIS138     -0.2718
     18  CB        49.4520   15.0520   15.7810 C.3   138  HIS138      0.0759
     19  CG        48.8530   16.1460   14.9510 C.ar  138  HIS138      0.0818
     20  ND1       47.6930   15.9800   14.2240 N.ar  138  HIS138     -0.2268
     21  CD2       49.2170   17.4360   14.7800 C.ar  138  HIS138      0.1154
     22  CE1       47.3620   17.1200   13.6470 C.ar  138  HIS138      0.1986
     23  NE2       48.2710   18.0200   13.9710 N.ar  138  HIS138     -0.2212
     24  N         50.7460   14.4490   12.9040 N.am  139  CYS139     -0.1956
     25  CA        51.8180   14.7150   11.9520 C.3   139  CYS139      0.1843
     26  C         52.5970   13.4350   11.6470 C.2   139  CYS139      0.2625
     27  O         52.0430   12.3380   11.7250 O.2   139  CYS139     -0.2714
     28  CB        52.7550   15.7960   12.5010 C.3   139  CYS139      0.0997
     29  SG        53.6290   16.7450   11.2270 S.3   139  CYS139     -0.0797
     30  N         53.8740   13.5680   11.3000 N.am  140  HIS140     -0.1959
     31  CA        54.6900   12.4000   10.9810 C.3   140  HIS140      0.1787
     32  C         56.0550   12.5400   11.6340 C.2   140  HIS140      0.2621
     33  O         57.0320   12.9340   10.9940 O.2   140  HIS140     -0.2715
     34  CB        54.8480   12.2390    9.4680 C.3   140  HIS140      0.0785
     35  CG        55.7710   11.1290    9.0830 C.ar  140  HIS140      0.0821
     36  ND1       57.0840   11.3450    8.7180 N.ar  140  HIS140     -0.2267
     37  CD2       55.5940    9.7850    9.0790 C.ar  140  HIS140      0.1154
     38  CE1       57.6750   10.1810    8.5080 C.ar  140  HIS140      0.1986
     39  NE2       56.7940    9.2190    8.7190 N.ar  140  HIS140     -0.2212
     40  N         56.1090   12.2120   12.9170 N.am  141  SER141     -0.1936
     41  CA        57.3290   12.3250   13.6900 C.3   141  SER141      0.2055
     42  C         58.0970   11.0090   13.8150 C.2   141  SER141      0.2643
     43  O         57.5750   10.0070   14.3300 O.2   141  SER141     -0.2714
     44  CB        56.9940   12.8740   15.0770 C.3   141  SER141      0.2130
     45  OG        58.0490   12.6460   15.9930 O.3   141  SER141     -0.2179
     46  N         59.3430   11.0200   13.3500 N.am  142  LYS142     -0.1963
     47  CA        60.1840    9.8320   13.4230 C.3   142  LYS142      0.1728
     48  C         60.3530    9.3930   14.8800 C.2   142  LYS142      0.2616
     49  O         60.3220    8.1980   15.1940 O.2   142  LYS142     -0.2715
     50  CB        61.5570   10.1070   12.7970 C.3   142  LYS142      0.0311
     51  CG        61.5010   10.5400   11.3420 C.3   142  LYS142      0.0038
     52  CD        62.8950   10.5940   10.6870 C.3   142  LYS142      0.0206
     53  CE        63.9050   11.4200   11.4940 C.3   142  LYS142      0.1093
     54  NZ        63.5350   12.8590   11.6110 N.3   142  LYS142     -0.1314
     55  N         60.5160   10.3720   15.7620 N.am  143  ALA143     -0.1977
     56  CA        60.6940   10.1090   17.1810 C.3   143  ALA143      0.1597
     57  C         59.4460    9.4580   17.7590 C.2   143  ALA143      0.2287
     58  O         59.5370    8.4470   18.4410 O.2   143  ALA143     -0.2864
     59  CB        61.0020   11.4080   17.9210 C.3   143  ALA143      0.0319
     60  N         49.1150   19.7340    4.8050 N.3   168  LYS168     -0.1245
     61  CA        49.9120   18.8300    3.9680 C.3   168  LYS168      0.1561
     62  C         49.6550   17.3300    4.0740 C.2   168  LYS168      0.2260
     63  O         50.3400   16.5440    3.4120 O.2   168  LYS168     -0.2867
     64  CB        51.4110   19.0580    4.1540 C.3   168  LYS168      0.0271
     65  CG        51.9430   20.3610    3.5720 C.3   168  LYS168      0.0035
     66  CD        51.8760   21.4630    4.6090 C.3   168  LYS168      0.0206
     67  CE        52.6660   21.1200    5.8870 C.3   168  LYS168      0.1093
     68  NZ        52.4790   22.1970    6.9090 N.3   168  LYS168     -0.1314
     69  N         50.2490   14.9460    6.4960 N.3   170  GLN170     -0.1245
     70  CA        51.2740   14.0370    7.0190 C.3   170  GLN170      0.1566
     71  C         50.7230   12.7370    7.6270 C.2   170  GLN170      0.2260
     72  O         51.4650   11.7710    7.8060 O.2   170  GLN170     -0.2867
     73  CB        52.1400   14.7340    8.0660 C.3   170  GLN170      0.0367
     74  CG        53.2290   15.6100    7.5020 C.3   170  GLN170      0.0905
     75  CD        52.7360   16.9810    7.0920 C.2   170  GLN170      0.2608
     76  OE1       53.5190   17.7960    6.6070 O.2   170  GLN170     -0.2717
     77  NE2       51.4380   17.2510    7.2900 N.am  170  GLN170     -0.0878
     78  N         55.4350   14.1720   18.2770 N.3   206  GLY206     -0.1210
     79  CA        56.8030   14.6550   18.2490 C.3   206  GLY206      0.1956
     80  C         56.8860   16.1370   18.5690 C.2   206  GLY206      0.2612
     81  O         55.9480   16.7150   19.1170 O.2   206  GLY206     -0.2717
     82  N         58.0110   16.7520   18.2110 N.am  207  ALA207     -0.1965
     83  CA        58.2380   18.1720   18.4650 C.3   207  ALA207      0.1728
     84  C         59.2520   18.8130   17.5150 C.2   207  ALA207      0.2616
     85  O         60.2480   18.2030   17.1400 O.2   207  ALA207     -0.2715
     86  CB        58.7110   18.3710   19.9160 C.3   207  ALA207      0.0334
     87  N         58.9940   20.0590   17.1340 N.am  208  ASP208     -0.1971
     88  CA        59.9240   20.7840   16.2760 C.3   208  ASP208      0.1709
     89  C         60.9560   21.4230   17.2190 C.2   208  ASP208      0.2293
     90  O         62.1350   21.5010   16.8970 O.2   208  ASP208     -0.2864
     91  CB        59.1750   21.8360   15.4580 C.3   208  ASP208      0.1436
     92  CG        59.9250   22.2280   14.2020 C.2   208  ASP208      0.3671
     93  OD1       60.5950   23.2830   14.2140 O.co2 208  ASP208     -0.2456
     94  OD2       59.8560   21.4650   13.2060 O.co2 208  ASP208     -0.2456
     95  N         55.0620   22.3140   17.7650 N.3   218  ASN218     -0.1225
     96  CA        54.8620   21.2220   16.8380 C.3   218  ASN218      0.1785
     97  C         53.8280   21.6110   15.7770 C.2   218  ASN218      0.2597
     98  O         53.2510   22.6930   15.8400 O.2   218  ASN218     -0.2718
     99  CB        54.4030   19.9970   17.6310 C.3   218  ASN218      0.1169
    100  CG        54.6090   18.7090   16.8820 C.2   218  ASN218      0.2627
    101  OD1       55.7130   18.4150   16.4120 O.2   218  ASN218     -0.2716
    102  ND2       53.5500   17.9190   16.7750 N.am  218  ASN218     -0.0877
    103  N         53.6010   20.7300   14.8060 N.am  219  LYS219     -0.1980
    104  CA        52.6460   20.9800   13.7310 C.3   219  LYS219      0.1596
    105  C         51.2980   21.4560   14.2550 C.2   219  LYS219      0.2287
    106  O         50.7930   20.9440   15.2670 O.2   219  LYS219     -0.2864
    107  CB        52.4590   19.7110   12.8960 C.3   219  LYS219      0.0298
    108  CG        51.4960   19.8580   11.7300 C.3   219  LYS219      0.0038
    109  CD        51.9090   20.9910   10.8060 C.3   219  LYS219      0.0206
    110  CE        53.2900   20.7680   10.2200 C.3   219  LYS219      0.1093
    111  NZ        53.3100   19.6210    9.2760 N.3   219  LYS219     -0.1314
    112  N         64.4480   14.8520   20.7930 N.3   241  GLU241     -0.1245
    113  CA        65.8530   14.7670   21.1330 C.3   241  GLU241      0.1567
    114  C         66.2290   15.9870   21.9810 C.2   241  GLU241      0.2260
    115  O         65.5710   17.0260   21.8970 O.2   241  GLU241     -0.2867
    116  CB        66.6840   14.7300   19.8550 C.3   241  GLU241      0.0388
    117  CG        66.2840   13.6090   18.8920 C.3   241  GLU241      0.1160
    118  CD        65.2520   14.0400   17.8610 C.2   241  GLU241      0.3649
    119  OE1       64.2290   14.6550   18.2360 O.co2 241  GLU241     -0.2457
    120  OE2       65.4670   13.7480   16.6670 O.co2 241  GLU241     -0.2457
    121  N         66.7280   19.6030   20.6370 N.3   244  LYS244     -0.1245
    122  CA        65.5760   20.3350   20.1360 C.3   244  LYS244      0.1561
    123  C         65.1170   21.2810   21.2280 C.2   244  LYS244      0.2260
    124  O         64.1760   22.0410   21.0420 O.2   244  LYS244     -0.2867
    125  CB        64.4420   19.3900   19.7500 C.3   244  LYS244      0.0271
    126  CG        64.5710   18.8420   18.3390 C.3   244  LYS244      0.0035
    127  CD        63.4670   17.8770   18.0460 C.3   244  LYS244      0.0206
    128  CE        63.6120   17.2800   16.6690 C.3   244  LYS244      0.1093
    129  NZ        62.7340   16.0960   16.5390 N.3   244  LYS244     -0.1314
    130  N         52.9370   29.6590    6.4850 N.3   257  ARG257     -0.1245
    131  CA        53.2570   28.9510    5.2610 C.3   257  ARG257      0.1563
    132  C         52.3180   29.3010    4.1160 C.2   257  ARG257      0.2260
    133  O         51.2070   29.7970    4.3190 O.2   257  ARG257     -0.2867
    134  CB        53.2560   27.4380    5.4950 C.3   257  ARG257      0.0307
    135  CG        54.4910   26.9460    6.2160 C.3   257  ARG257      0.0489
    136  CD        54.5050   25.4380    6.3370 C.3   257  ARG257      0.2205
    137  NE        55.7130   24.9760    7.0140 N.pl3 257  ARG257     -0.0865
    138  CZ        55.8500   23.7690    7.5470 C.cat 257  ARG257      0.5346
    139  NH1       56.9820   23.4240    8.1470 N.pl3 257  ARG257      0.1354
    140  NH2       54.8460   22.9100    7.4810 N.pl3 257  ARG257      0.1354
    141  N         52.9240   25.9470   12.9570 N.3   282  PHE282     -0.1241
    142  CA        52.8620   25.3330   14.2810 C.3   282  PHE282      0.1605
    143  C         51.9450   26.0340   15.2740 C.2   282  PHE282      0.2264
    144  O         51.4840   27.1580   15.0540 O.2   282  PHE282     -0.2867
    145  CB        54.2480   25.3510   14.9330 C.3   282  PHE282      0.0534
    146  CG        55.3820   25.0060   14.0100 C.ar  282  PHE282     -0.0203
    147  CD1       55.4730   23.7460   13.4270 C.ar  282  PHE282     -0.0042
    148  CD2       56.4080   25.9260   13.7880 C.ar  282  PHE282     -0.0042
    149  CE1       56.5730   23.4020   12.6400 C.ar  282  PHE282     -0.0003
    150  CE2       57.5090   25.5990   13.0070 C.ar  282  PHE282     -0.0003
    151  CZ        57.5940   24.3330   12.4320 C.ar  282  PHE282     -0.0000
@<TRIPOS>BOND
     1    63    62    2
     2    65    64    1
     3    65    66    1
     4    61    62    1
     5    61    64    1
     6    61    60    1
     7   132   133    2
     8   132   131    1
     9    66    67    1
    10   131   134    1
    11   131   130    1
    12   134   135    1
    13    67    68    1
    14   135   136    1
    15   136   137    1
    16    69    70    1
    17    76    75    2
    18   137   138    2
    19    70    71    1
    20    70    73    1
    21    75    77   am
    22    75    74    1
    23   140   138    1
    24    74    73    1
    25   138   139    1
    26    71    72    2
    27    38    36   ar
    28    38    39   ar
    29    36    35   ar
    30    39    37   ar
    31    37    35   ar
    32    35    34    1
    33   111   110    1
    34    34    31    1
    35   110   109    1
    36    52    51    1
    37    52    53    1
    38   109   108    1
    39    31    30    1
    40    31    32    1
    41    33    32    2
    42    29    28    1
    43    30    26   am
    44    51    50    1
    45    53    54    1
    46    32    40   am
    47    26    27    2
    48    26    25    1
    49   108   107    1
    50     1     2    1
    51    25    28    1
    52    25    24    1
    53   151   149   ar
    54   151   150   ar
    55   149   147   ar
    56    50    47    1
    57   107   104    1
    58    24    16   am
    59    40    41    1
    60   141   142    1
    61   150   148   ar
    62    94    92   ar
    63     2     3    1
    64     2     5    1
    65    46    47    1
    66    46    42   am
    67    47    48    1
    68   147   146   ar
    69     3     4    2
    70    22    23   ar
    71    22    20   ar
    72    41    42    1
    73    41    44    1
    74   104   105    1
    75   104   103    1
    76   148   146   ar
    77    42    43    2
    78    23    21   ar
    79   146   145    1
    80    16    17    2
    81    16    15    1
    82    92    93   ar
    83    92    91    1
    84    20    19   ar
    85    12    11    1
    86   105   106    2
    87   142   145    1
    88   142   143    1
    89    21    19   ar
    90   103    97   am
    91    48    49    2
    92    48    55   am
    93    19    18    1
    94    15    18    1
    95    15    14    1
    96   144   143    2
    97    44    45    1
    98    91    88    1
    99    55    56    1
   100    11    13    1
   101    11    10    1
   102    97    98    2
   103    97    96    1
   104    88    87    1
   105    88    89    1
   106    10     7    1
   107   101   100    2
   108   129   128    1
   109   120   118   ar
   110   128   127    1
   111   102   100   am
   112    96    99    1
   113    96    95    1
   114   100    99    1
   115    90    89    2
   116    87    84   am
   117    85    84    2
   118    56    57    1
   119    56    59    1
   120    84    83    1
   121    57    58    2
   122   118   119   ar
   123   118   117    1
   124     7     6    1
   125     7     8    1
   126   127   126    1
   127    82    83    1
   128    82    80   am
   129    79    78    1
   130    79    80    1
   131   126   125    1
   132    83    86    1
   133     8     9    2
   134    80    81    2
   135   117   116    1
   136   125   122    1
   137   116   113    1
   138   122   121    1
   139   122   123    1
   140   112   113    1
   141   124   123    2
   142   113   114    1
   143   115   114    2
