@<TRIPOS>MOLECULE
tmp/3a9cB01.pdb
 89 89 0 0 0
SMALL
GASTEIGER

@<TRIPOS>ATOM
      1  N         43.4850   15.8570   25.4740 N.3   229  ALA229     -0.1231
      2  CA        44.0670   14.6850   26.1280 C.3   229  ALA229      0.1694
      3  C         44.0000   14.9760   27.6310 C.2   229  ALA229      0.2591
      4  O         43.5830   14.1310   28.4180 O.2   229  ALA229     -0.2718
      5  CB        45.5170   14.4820   25.7000 C.3   229  ALA229      0.0304
      6  N         44.4160   16.1860   28.0090 N.am  230  LYS230     -0.1980
      7  CA        44.4030   16.6440   29.3960 C.3   230  LYS230      0.1596
      8  C         42.9920   16.5690   29.9770 C.2   230  LYS230      0.2287
      9  O         42.7950   16.1190   31.1050 O.2   230  LYS230     -0.2864
     10  CB        44.9040   18.0870   29.4700 C.3   230  LYS230      0.0298
     11  CG        45.0430   18.6330   30.8860 C.3   230  LYS230      0.0038
     12  CD        46.0460   17.8000   31.6570 C.3   230  LYS230      0.0206
     13  CE        46.2020   18.2610   33.0790 C.3   230  LYS230      0.1093
     14  NZ        46.9710   17.2190   33.8240 N.3   230  LYS230     -0.1314
     15  N         42.5630   13.0390   30.7540 N.3   233  ARG233     -0.1231
     16  CA        43.5980   12.3900   31.5470 C.3   233  ARG233      0.1694
     17  C         44.2700   11.2770   30.7980 C.2   233  ARG233      0.2592
     18  O         44.6910   10.2960   31.4090 O.2   233  ARG233     -0.2718
     19  CB        43.0460   11.8060   32.8340 C.3   233  ARG233      0.0321
     20  CG        42.4400   12.8330   33.7220 C.3   233  ARG233      0.0489
     21  CD        43.3660   14.0010   33.9470 C.3   233  ARG233      0.2205
     22  NE        42.6280   15.1020   34.5440 N.pl3 233  ARG233     -0.0865
     23  CZ        43.1810   16.2410   34.9370 C.cat 233  ARG233      0.5346
     24  NH1       44.4900   16.4220   34.7910 N.pl3 233  ARG233      0.1354
     25  NH2       42.4240   17.1910   35.4760 N.pl3 233  ARG233      0.1354
     26  N         44.3340   11.4000   29.4770 N.am  234  VAL234     -0.1966
     27  CA        45.0210   10.4000   28.6870 C.3   234  VAL234      0.1727
     28  C         46.4930   10.7850   28.7860 C.2   234  VAL234      0.2616
     29  O         46.8770   11.9070   28.4550 O.2   234  VAL234     -0.2715
     30  CB        44.5900   10.4180   27.2030 C.3   234  VAL234      0.0290
     31  CG1       45.5170    9.5520   26.3860 C.3   234  VAL234      0.0023
     32  CG2       43.1690    9.8960   27.0590 C.3   234  VAL234      0.0023
     33  N         47.3060    9.8600   29.2790 N.am  235  TRP235     -0.1960
     34  CA        48.7430   10.0840   29.4170 C.3   235  TRP235      0.1771
     35  C         49.3040   10.6390   28.0970 C.2   235  TRP235      0.2620
     36  O         49.2140    9.9970   27.0410 O.2   235  TRP235     -0.2715
     37  CB        49.4180    8.7590   29.7720 C.3   235  TRP235      0.0590
     38  CG        50.8180    8.9060   30.1530 C.ar  235  TRP235      0.0006
     39  CD1       51.9070    8.5700   29.4110 C.ar  235  TRP235      0.0946
     40  CD2       51.3140    9.4250   31.3930 C.ar  235  TRP235      0.0152
     41  NE1       53.0610    8.8440   30.1140 N.ar  235  TRP235     -0.2442
     42  CE2       52.7250    9.3680   31.3350 C.ar  235  TRP235      0.0810
     43  CE3       50.7060    9.9320   32.5450 C.ar  235  TRP235      0.0012
     44  CZ2       53.5370    9.7980   32.3850 C.ar  235  TRP235      0.0191
     45  CZ3       51.5120   10.3620   33.5840 C.ar  235  TRP235      0.0001
     46  CH2       52.9150   10.2910   33.4970 C.ar  235  TRP235      0.0015
     47  N         49.8790   11.8300   28.1540 N.am  236  THR236     -0.1951
     48  CA        50.4050   12.4670   26.9490 C.3   236  THR236      0.1897
     49  C         51.9190   12.5790   26.9220 C.2   236  THR236      0.2313
     50  O         52.5380   13.1290   27.8420 O.2   236  THR236     -0.2863
     51  CB        49.7590   13.8590   26.7780 C.3   236  THR236      0.1794
     52  OG1       48.3510   13.6830   26.5790 O.3   236  THR236     -0.2208
     53  CG2       50.3440   14.6050   25.5950 C.3   236  THR236      0.0378
     54  N         51.5960   22.3330   30.6910 N.3   288  GLU288     -0.1231
     55  CA        50.4990   21.7720   31.5040 C.3   288  GLU288      0.1699
     56  C         49.7350   20.6550   30.7920 C.2   288  GLU288      0.2592
     57  O         49.0470   19.8680   31.4370 O.2   288  GLU288     -0.2718
     58  CB        49.4520   22.8430   31.8640 C.3   288  GLU288      0.0402
     59  CG        49.9080   23.9830   32.7740 C.3   288  GLU288      0.1161
     60  CD        51.0200   24.8170   32.1720 C.2   288  GLU288      0.3649
     61  OE1       50.9080   25.1610   30.9720 O.co2 288  GLU288     -0.2457
     62  OE2       51.9940   25.1320   32.9060 O.co2 288  GLU288     -0.2457
     63  N         49.8280   20.5970   29.4650 N.am  289  TYR289     -0.1962
     64  CA        49.0910   19.5870   28.7280 C.3   289  TYR289      0.1771
     65  C         49.9340   18.4150   28.3110 C.2   289  TYR289      0.2619
     66  O         49.4670   17.5290   27.5970 O.2   289  TYR289     -0.2715
     67  CB        48.4070   20.2050   27.5020 C.3   289  TYR289      0.0574
     68  CG        47.4740   21.3550   27.8240 C.ar  289  TYR289     -0.0198
     69  CD1       46.9530   21.5200   29.1100 C.ar  289  TYR289     -0.0009
     70  CD2       47.1270   22.2810   26.8530 C.ar  289  TYR289     -0.0009
     71  CE1       46.1180   22.5800   29.4180 C.ar  289  TYR289      0.0417
     72  CE2       46.2900   23.3480   27.1450 C.ar  289  TYR289      0.0417
     73  CZ        45.7900   23.4940   28.4320 C.ar  289  TYR289      0.1957
     74  OH        44.9790   24.5590   28.7350 O.3   289  TYR289     -0.2866
     75  N         51.1760   18.4010   28.7750 N.am  290  VAL290     -0.1963
     76  CA        52.1060   17.3170   28.4730 C.3   290  VAL290      0.1727
     77  C         52.6260   16.6740   29.7580 C.2   290  VAL290      0.2616
     78  O         53.1830   17.3580   30.6100 O.2   290  VAL290     -0.2715
     79  CB        53.3170   17.8300   27.6870 C.3   290  VAL290      0.0290
     80  CG1       54.2310   16.6540   27.3460 C.3   290  VAL290      0.0023
     81  CG2       52.8500   18.5610   26.4370 C.3   290  VAL290      0.0023
     82  N         52.4590   15.3610   29.8860 N.am  291  ASP291     -0.1971
     83  CA        52.9270   14.6540   31.0780 C.3   291  ASP291      0.1709
     84  C         54.4440   14.4820   31.1230 C.2   291  ASP291      0.2293
     85  O         55.0740   14.7280   32.1580 O.2   291  ASP291     -0.2864
     86  CB        52.2450   13.2870   31.1750 C.3   291  ASP291      0.1436
     87  CG        50.7620   13.4110   31.4290 C.2   291  ASP291      0.3671
     88  OD1       50.4070   13.8800   32.5320 O.co2 291  ASP291     -0.2456
     89  OD2       49.9600   13.0630   30.5300 O.co2 291  ASP291     -0.2456
@<TRIPOS>BOND
     1     1     2    1
     2    53    51    1
     3     5     2    1
     4     2     3    1
     5    31    30    1
     6    81    79    1
     7    52    51    1
     8    51    48    1
     9    70    72   ar
    10    70    68   ar
    11    49    48    1
    12    49    50    2
    13    48    47    1
    14    36    35    2
    15    32    30    1
    16    72    73   ar
    17    30    27    1
    18    80    79    1
    19    67    68    1
    20    67    64    1
    21    66    65    2
    22     3     6   am
    23     3     4    2
    24    79    76    1
    25    68    69   ar
    26     6     7    1
    27    35    47   am
    28    35    34    1
    29    65    64    1
    30    65    75   am
    31    73    74    1
    32    73    71   ar
    33    29    28    2
    34    76    75    1
    35    76    77    1
    36    27    28    1
    37    27    26    1
    38    64    63    1
    39    28    33   am
    40    69    71   ar
    41    33    34    1
    42     7    10    1
    43     7     8    1
    44    39    41   ar
    45    39    38   ar
    46    34    37    1
    47    63    56   am
    48    10    11    1
    49    26    17   am
    50    77    82   am
    51    77    78    2
    52    37    38    1
    53    82    83    1
    54     8     9    2
    55    41    42   ar
    56    38    40   ar
    57    89    87   ar
    58    54    55    1
    59    15    16    1
    60    56    57    2
    61    56    55    1
    62    17    18    2
    63    17    16    1
    64    11    12    1
    65    61    60   ar
    66    83    84    1
    67    83    86    1
    68    84    85    2
    69    86    87    1
    70    42    40   ar
    71    42    44   ar
    72    40    43   ar
    73    87    88   ar
    74    55    58    1
    75    16    19    1
    76    12    13    1
    77    58    59    1
    78    60    59    1
    79    60    62   ar
    80    44    46   ar
    81    43    45   ar
    82    19    20    1
    83    13    14    1
    84    46    45   ar
    85    20    21    1
    86    21    22    1
    87    22    23    2
    88    24    23    1
    89    23    25    1
