@<TRIPOS>MOLECULE
tmp/3a9eB00.pdb
 133 125 0 0 0
SMALL
GASTEIGER

@<TRIPOS>ATOM
      1  N         25.3960   46.6720   19.0030 N.3    60  ILE60      -0.1231
      2  CA        25.3300   46.3900   17.5750 C.3    60  ILE60       0.1692
      3  C         23.9580   45.8180   17.2360 C.2    60  ILE60       0.2591
      4  O         23.3590   46.1700   16.2170 O.2    60  ILE60      -0.2718
      5  CB        26.4290   45.4030   17.1400 C.3    60  ILE60       0.0266
      6  CG1       27.8080   46.0510   17.2800 C.3    60  ILE60       0.0019
      7  CG2       26.1980   44.9460   15.7070 C.3    60  ILE60       0.0020
      8  CD1       28.9610   45.1140   16.9950 C.3    60  ILE60       0.0001
      9  N         23.4660   44.9360   18.1010 N.am   61  ILE61      -0.1980
     10  CA        22.1210   44.3930   17.9710 C.3    61  ILE61       0.1595
     11  C         21.1100   45.5310   17.9950 C.2    61  ILE61       0.2287
     12  O         20.1900   45.5790   17.1780 O.2    61  ILE61      -0.2864
     13  CB        21.8030   43.4030   19.1110 C.3    61  ILE61       0.0276
     14  CG1       22.6560   42.1410   18.9750 C.3    61  ILE61       0.0022
     15  CG2       20.3220   43.0490   19.1200 C.3    61  ILE61       0.0022
     16  CD1       22.4730   41.1520   20.1070 C.3    61  ILE61       0.0001
     17  N         21.0870   47.6250   14.7900 N.3    64  VAL64      -0.1245
     18  CA        20.2740   47.0180   13.7450 C.3    64  VAL64       0.1561
     19  C         18.7990   47.3160   13.9920 C.2    64  VAL64       0.2260
     20  O         18.0610   47.6670   13.0710 O.2    64  VAL64      -0.2867
     21  CB        20.4870   45.4980   13.6750 C.3    64  VAL64       0.0252
     22  CG1       19.5080   44.8660   12.6930 C.3    64  VAL64       0.0019
     23  CG2       21.9260   45.1820   13.2870 C.3    64  VAL64       0.0019
     24  N         16.2500   49.2200   11.3300 N.3    68  LYS68      -0.1245
     25  CA        15.0370   48.6190   10.7860 C.3    68  LYS68       0.1561
     26  C         13.8200   49.5360   10.8830 C.2    68  LYS68       0.2260
     27  O         12.8710   49.3970   10.1130 O.2    68  LYS68      -0.2867
     28  CB        14.7480   47.2850   11.4770 C.3    68  LYS68       0.0271
     29  CG        15.8850   46.2810   11.3800 C.3    68  LYS68       0.0035
     30  CD        15.5350   44.9770   12.0800 C.3    68  LYS68       0.0206
     31  CE        14.3510   44.2950   11.4130 C.3    68  LYS68       0.1093
     32  NZ        13.9760   43.0350   12.1080 N.3    68  LYS68      -0.1314
     33  N         14.4190   51.6370    4.8180 N.3    73  PHE73      -0.1227
     34  CA        15.5590   50.7490    5.0290 C.3    73  PHE73       0.1736
     35  C         15.1780   49.2820    4.8520 C.2    73  PHE73       0.2596
     36  O         15.8920   48.5200    4.1980 O.2    73  PHE73      -0.2718
     37  CB        16.1840   50.9690    6.4090 C.3    73  PHE73       0.0547
     38  CG        17.4330   50.1640    6.6400 C.ar   73  PHE73      -0.0202
     39  CD1       18.6650   50.6380    6.2210 C.ar   73  PHE73      -0.0042
     40  CD2       17.3720   48.9290    7.2680 C.ar   73  PHE73      -0.0042
     41  CE1       19.8150   49.8980    6.4280 C.ar   73  PHE73      -0.0003
     42  CE2       18.5180   48.1840    7.4770 C.ar   73  PHE73      -0.0003
     43  CZ        19.7410   48.6690    7.0570 C.ar   73  PHE73      -0.0000
     44  N         14.0500   48.8910    5.4360 N.am   74  THR74      -0.1953
     45  CA        13.5810   47.5140    5.3420 C.3    74  THR74       0.1897
     46  C         13.2330   47.1430    3.9020 C.2    74  THR74       0.2313
     47  O         13.2970   45.9740    3.5200 O.2    74  THR74      -0.2863
     48  CB        12.3560   47.2730    6.2510 C.3    74  THR74       0.1794
     49  OG1       12.7360   47.4500    7.6210 O.3    74  THR74      -0.2208
     50  CG2       11.8130   45.8650    6.0630 C.3    74  THR74       0.0378
     51  N         18.4580   42.8800    0.9900 N.3    78  ILE78      -0.1245
     52  CA        19.1920   42.4060    2.1590 C.3    78  ILE78       0.1561
     53  C         20.6890   42.6670    2.0150 C.2    78  ILE78       0.2260
     54  O         21.3550   43.0520    2.9760 O.2    78  ILE78      -0.2867
     55  CB        18.9440   40.9080    2.4190 C.3    78  ILE78       0.0252
     56  CG1       17.5360   40.6940    2.9790 C.3    78  ILE78       0.0019
     57  CG2       19.9780   40.3520    3.3830 C.3    78  ILE78       0.0019
     58  CD1       17.2660   41.4610    4.2580 C.3    78  ILE78       0.0001
     59  N         21.2170   46.3480    2.7600 N.3    81  GLN81      -0.1231
     60  CA        21.0290   46.5870    4.1850 C.3    81  GLN81       0.1698
     61  C         22.2600   46.1380    4.9650 C.2    81  GLN81       0.2592
     62  O         22.7240   46.8330    5.8700 O.2    81  GLN81      -0.2718
     63  CB        19.7870   45.8550    4.6950 C.3    81  GLN81       0.0381
     64  CG        18.4930   46.2640    4.0080 C.3    81  GLN81       0.0905
     65  CD        17.2740   45.6120    4.6320 C.2    81  GLN81       0.2608
     66  OE1       17.2890   45.2330    5.8030 O.2    81  GLN81      -0.2717
     67  NE2       16.2070   45.4820    3.8520 N.am   81  GLN81      -0.0878
     68  N         22.7930   44.9780    4.5970 N.am   82  ILE82      -0.1980
     69  CA        23.9700   44.4280    5.2610 C.3    82  ILE82       0.1595
     70  C         25.2330   45.2260    4.9330 C.2    82  ILE82       0.2287
     71  O         26.1240   45.3710    5.7690 O.2    82  ILE82      -0.2864
     72  CB        24.1760   42.9430    4.8990 C.3    82  ILE82       0.0276
     73  CG1       23.0160   42.1020    5.4360 C.3    82  ILE82       0.0022
     74  CG2       25.4960   42.4340    5.4510 C.3    82  ILE82       0.0022
     75  CD1       23.2190   40.6090    5.2940 C.3    82  ILE82       0.0001
     76  N         24.9440   48.6050    7.0810 N.3    85  LEU85      -0.1231
     77  CA        25.1930   48.3780    8.5000 C.3    85  LEU85       0.1693
     78  C         26.6700   48.1340    8.7940 C.2    85  LEU85       0.2591
     79  O         27.2110   48.6610    9.7650 O.2    85  LEU85      -0.2718
     80  CB        24.3490   47.2090    9.0110 C.3    85  LEU85       0.0284
     81  CG        22.8730   47.5190    9.2590 C.3    85  LEU85       0.0019
     82  CD1       22.0800   46.2450    9.4940 C.3    85  LEU85       0.0001
     83  CD2       22.7300   48.4680   10.4390 C.3    85  LEU85       0.0001
     84  N         27.3180   47.3320    7.9560 N.am   86  LYS86      -0.1980
     85  CA        28.7290   47.0130    8.1460 C.3    86  LYS86       0.1596
     86  C         29.6100   48.2400    7.9370 C.2    86  LYS86       0.2287
     87  O         30.6400   48.3960    8.5920 O.2    86  LYS86      -0.2864
     88  CB        29.1540   45.8830    7.2050 C.3    86  LYS86       0.0298
     89  CG        28.6250   44.5130    7.6040 C.3    86  LYS86       0.0038
     90  CD        28.6280   43.5410    6.4310 C.3    86  LYS86       0.0206
     91  CE        30.0040   43.4280    5.7940 C.3    86  LYS86       0.1093
     92  NZ        31.0170   42.8970    6.7450 N.3    86  LYS86      -0.1314
     93  N         31.2970   36.5240   17.5590 N.3   232  PRO232     -0.2102
     94  CA        30.7810   36.2490   16.2130 C.3   232  PRO232      0.1504
     95  C         30.1090   37.4560   15.5600 C.2   232  PRO232      0.2575
     96  O         30.3080   37.6910   14.3680 O.2   232  PRO232     -0.2718
     97  CB        29.7620   35.1360   16.4590 C.3   232  PRO232      0.0282
     98  CG        30.3050   34.4100   17.6410 C.3   232  PRO232      0.0208
     99  CD        30.9350   35.4630   18.5160 C.3   232  PRO232      0.0893
    100  N         29.3290   38.2100   16.3270 N.am  233  LEU233     -0.1980
    101  CA        28.6170   39.3610   15.7820 C.3   233  LEU233      0.1596
    102  C         29.5690   40.4890   15.3980 C.2   233  LEU233      0.2287
    103  O         29.4000   41.1230   14.3580 O.2   233  LEU233     -0.2864
    104  CB        27.5610   39.8640   16.7680 C.3   233  LEU233      0.0297
    105  CG        26.6620   40.9840   16.2390 C.3   233  LEU233      0.0022
    106  CD1       26.1290   40.6380   14.8540 C.3   233  LEU233      0.0001
    107  CD2       25.5230   41.2580   17.2040 C.3   233  LEU233      0.0001
    108  N         31.2360   39.3330   12.1280 N.3   236  GLU236     -0.1231
    109  CA        30.3400   39.4690   10.9850 C.3   236  GLU236      0.1699
    110  C         30.2060   40.9290   10.5690 C.2   236  GLU236      0.2592
    111  O         29.9180   41.2330    9.4110 O.2   236  GLU236     -0.2718
    112  CB        28.9540   38.9070   11.3140 C.3   236  GLU236      0.0402
    113  CG        28.9070   37.4010   11.5150 C.3   236  GLU236      0.1161
    114  CD        27.4860   36.8750   11.6350 C.2   236  GLU236      0.3649
    115  OE1       27.3170   35.6710   11.9190 O.co2 236  GLU236     -0.2457
    116  OE2       26.5390   37.6670   11.4440 O.co2 236  GLU236     -0.2457
    117  N         30.4240   41.8300   11.5200 N.am  237  MET237     -0.1979
    118  CA        30.1360   43.2440   11.3100 C.3   237  MET237      0.1605
    119  C         31.3310   44.0410   10.7900 C.2   237  MET237      0.2287
    120  O         31.1750   44.9240    9.9470 O.2   237  MET237     -0.2864
    121  CB        29.6210   43.8690   12.6070 C.3   237  MET237      0.0413
    122  CG        28.7880   45.1180   12.4050 C.3   237  MET237      0.0598
    123  SD        27.3300   44.8050   11.3940 S.3   237  MET237     -0.1393
    124  CE        26.6680   43.3490   12.1990 C.3   237  MET237      0.0692
    125  N         34.4120   42.6110    9.6690 N.3   239  GLU239     -0.1245
    126  CA        35.3720   41.7580    8.9760 C.3   239  GLU239      0.1567
    127  C         34.7490   41.0770    7.7610 C.2   239  GLU239      0.2260
    128  O         33.5540   40.7770    7.7480 O.2   239  GLU239     -0.2867
    129  CB        35.9460   40.7110    9.9340 C.3   239  GLU239      0.0388
    130  CG        36.5570   41.3000   11.1960 C.3   239  GLU239      0.1160
    131  CD        37.1310   40.2460   12.1200 C.2   239  GLU239      0.3649
    132  OE1       37.4570   39.1430   11.6350 O.co2 239  GLU239     -0.2457
    133  OE2       37.2580   40.5230   13.3320 O.co2 239  GLU239     -0.2457
@<TRIPOS>BOND
     1    51    52    1
     2    53    52    1
     3    53    54    2
     4    52    55    1
     5    55    56    1
     6    55    57    1
     7    59    60    1
     8    56    58    1
     9    47    46    2
    10    67    65   am
    11    46    45    1
    12    64    65    1
    13    64    63    1
    14    60    63    1
    15    60    61    1
    16    36    35    2
    17    68    61   am
    18    68    69    1
    19    65    66    2
    20    33    34    1
    21    35    34    1
    22    35    44   am
    23    72    69    1
    24    72    73    1
    25    72    74    1
    26    70    69    1
    27    70    71    2
    28    61    62    2
    29    34    37    1
    30    75    73    1
    31    45    44    1
    32    45    48    1
    33    91    90    1
    34    91    92    1
    35    50    48    1
    36    39    41   ar
    37    39    38   ar
    38    48    49    1
    39    37    38    1
    40    41    43   ar
    41    90    89    1
    42    38    40   ar
    43    43    42   ar
    44    76    77    1
    45    88    89    1
    46    88    85    1
    47    40    42   ar
    48   128   127    2
    49   127   126    1
    50    86    85    1
    51    86    87    2
    52    84    85    1
    53    84    78   am
    54    77    78    1
    55    77    80    1
    56    78    79    2
    57   126   125    1
    58   126   129    1
    59    80    81    1
    60    81    82    1
    61    81    83    1
    62   111   110    2
    63   129   130    1
    64   120   119    2
    65    27    26    2
    66   110   109    1
    67   110   117   am
    68    25    26    1
    69    25    24    1
    70    25    28    1
    71   119   118    1
    72   109   112    1
    73   109   108    1
    74   130   131    1
    75   118   117    1
    76   118   121    1
    77   112   113    1
    78    29    28    1
    79    29    30    1
    80   123   124    1
    81   123   122    1
    82    31    30    1
    83    31    32    1
    84   116   114   ar
    85   113   114    1
    86   132   131   ar
    87   114   115   ar
    88   131   133   ar
    89   122   121    1
    90    22    21    1
    91    20    19    2
    92    23    21    1
    93    21    18    1
    94    18    19    1
    95    18    17    1
    96   103   102    2
    97    96    95    2
    98   106   105    1
    99   102   101    1
   100    95    94    1
   101    95   100   am
   102     7     5    1
   103   101   100    1
   104   101   104    1
   105    94    97    1
   106    94    93    1
   107     4     3    2
   108   105   104    1
   109   105   107    1
   110    97    98    1
   111     8     6    1
   112     5     6    1
   113     5     2    1
   114    12    11    2
   115     3     2    1
   116     3     9   am
   117    93    99    1
   118     2     1    1
   119    98    99    1
   120    10    11    1
   121    10     9    1
   122    10    13    1
   123    14    13    1
   124    14    16    1
   125    13    15    1
