@<TRIPOS>MOLECULE
tmp/3a9eA00.pdb
 205 194 0 0 0
SMALL
GASTEIGER

@<TRIPOS>ATOM
      1  N         52.9190   57.7750  -11.5160 N.3    27  VAL27      -0.1245
      2  CA        53.1740   58.4700  -10.2580 C.3    27  VAL27       0.1561
      3  C         54.0540   59.7080  -10.4340 C.2    27  VAL27       0.2260
      4  O         53.7790   60.7590   -9.8540 O.2    27  VAL27      -0.2867
      5  CB        53.8060   57.5330   -9.2120 C.3    27  VAL27       0.0252
      6  CG1       54.2670   58.3230   -7.9980 C.3    27  VAL27       0.0019
      7  CG2       52.8150   56.4460   -8.8060 C.3    27  VAL27       0.0019
      8  N         52.0150   62.5000  -11.9110 N.3    30  ILE30      -0.1231
      9  CA        51.1630   63.0860  -10.8860 C.3    30  ILE30       0.1692
     10  C         51.9660   64.0420  -10.0110 C.2    30  ILE30       0.2592
     11  O         51.5280   65.1600   -9.7330 O.2    30  ILE30      -0.2718
     12  CB        50.5220   62.0000  -10.0010 C.3    30  ILE30       0.0266
     13  CG1       49.5520   61.1500  -10.8250 C.3    30  ILE30       0.0019
     14  CG2       49.8080   62.6320   -8.8160 C.3    30  ILE30       0.0020
     15  CD1       48.9420   59.9980  -10.0570 C.3    30  ILE30       0.0001
     16  N         53.1440   63.5970   -9.5870 N.am   31  CYS31      -0.1970
     17  CA        54.0360   64.4270   -8.7860 C.3    31  CYS31       0.1712
     18  C         54.4700   65.6620   -9.5670 C.2    31  CYS31       0.2296
     19  O         54.6410   66.7400   -8.9980 O.2    31  CYS31      -0.2864
     20  CB        55.2650   63.6300   -8.3430 C.3    31  CYS31       0.0983
     21  SG        54.9170   62.2860   -7.1850 S.3    31  CYS31      -0.0798
     22  N         52.7160   67.2050  -11.9370 N.3    33  ALA33      -0.1231
     23  CA        51.5700   68.1040  -11.9960 C.3    33  ALA33       0.1694
     24  C         51.2830   68.7100  -10.6270 C.2    33  ALA33       0.2591
     25  O         50.8210   69.8470  -10.5240 O.2    33  ALA33      -0.2718
     26  CB        50.3480   67.3670  -12.5190 C.3    33  ALA33       0.0304
     27  N         51.5620   67.9430   -9.5780 N.am   34  ALA34      -0.1980
     28  CA        51.3440   68.4010   -8.2110 C.3    34  ALA34       0.1597
     29  C         52.2410   69.5880   -7.8870 C.2    34  ALA34       0.2287
     30  O         51.7820   70.6020   -7.3600 O.2    34  ALA34      -0.2864
     31  CB        51.5850   67.2660   -7.2260 C.3    34  ALA34       0.0319
     32  N         51.0660   72.8930   -9.4880 N.3    37  GLN37      -0.1231
     33  CA        49.9090   73.5130   -8.8530 C.3    37  GLN37       0.1698
     34  C         50.2120   74.0240   -7.4470 C.2    37  GLN37       0.2592
     35  O         49.4360   74.7960   -6.8840 O.2    37  GLN37      -0.2718
     36  CB        48.7180   72.5530   -8.8340 C.3    37  GLN37       0.0381
     37  CG        48.1410   72.2550  -10.2100 C.3    37  GLN37       0.0905
     38  CD        47.8710   73.5120  -11.0180 C.2    37  GLN37       0.2608
     39  OE1       48.7920   74.1350  -11.5490 O.2    37  GLN37      -0.2717
     40  NE2       46.6000   73.8840  -11.1250 N.am   37  GLN37      -0.0878
     41  N         51.3350   73.5950   -6.8810 N.am   38  LEU38      -0.1980
     42  CA        51.7730   74.1270   -5.5950 C.3    38  LEU38       0.1596
     43  C         52.2900   75.5510   -5.7600 C.2    38  LEU38       0.2287
     44  O         52.1270   76.3880   -4.8730 O.2    38  LEU38      -0.2864
     45  CB        52.8490   73.2420   -4.9620 C.3    38  LEU38       0.0297
     46  CG        52.3510   72.0910   -4.0870 C.3    38  LEU38       0.0022
     47  CD1       53.4750   71.5770   -3.2030 C.3    38  LEU38       0.0001
     48  CD2       51.1730   72.5420   -3.2400 C.3    38  LEU38       0.0001
     49  N         46.7030   71.5250    1.4960 N.3    67  TRP67      -0.1227
     50  CA        47.2220   71.5780    0.1310 C.3    67  TRP67       0.1737
     51  C         46.8740   70.3270   -0.6750 C.2    67  TRP67       0.2595
     52  O         46.5810   70.4090   -1.8690 O.2    67  TRP67      -0.2718
     53  CB        48.7330   71.8370    0.1160 C.3    67  TRP67       0.0564
     54  CG        49.5730   70.6550    0.4990 C.ar   67  TRP67       0.0003
     55  CD1       50.0430   70.3520    1.7430 C.ar   67  TRP67       0.0946
     56  CD2       50.0560   69.6250   -0.3750 C.ar   67  TRP67       0.0152
     57  NE1       50.7840   69.1940    1.7000 N.ar   67  TRP67      -0.2442
     58  CE2       50.8070   68.7300    0.4130 C.ar   67  TRP67       0.0810
     59  CE3       49.9220   69.3720   -1.7430 C.ar   67  TRP67       0.0012
     60  CZ2       51.4220   67.5990   -0.1250 C.ar   67  TRP67       0.0191
     61  CZ3       50.5350   68.2490   -2.2740 C.ar   67  TRP67       0.0001
     62  CH2       51.2750   67.3780   -1.4660 C.ar   67  TRP67       0.0015
     63  N         46.8980   69.1730   -0.0170 N.am   68  ASN68      -0.1974
     64  CA        46.5810   67.9130   -0.6880 C.3    68  ASN68       0.1688
     65  C         45.1160   67.8020   -1.1130 C.2    68  ASN68       0.2292
     66  O         44.8220   67.5390   -2.2770 O.2    68  ASN68      -0.2864
     67  CB        46.9970   66.7070    0.1640 C.3    68  ASN68       0.1181
     68  CG        46.5580   66.8310    1.6140 C.2    68  ASN68       0.2629
     69  OD1       46.6480   67.9040    2.2160 O.2    68  ASN68      -0.2716
     70  ND2       46.0930   65.7270    2.1860 N.am   68  ASN68      -0.0877
     71  N         44.1830   70.3630   -3.9630 N.3    71  LEU71      -0.1231
     72  CA        44.6060   69.9940   -5.3080 C.3    71  LEU71       0.1693
     73  C         43.7910   68.8250   -5.8480 C.2    71  LEU71       0.2591
     74  O         43.3340   68.8540   -6.9920 O.2    71  LEU71      -0.2718
     75  CB        46.0960   69.6500   -5.3310 C.3    71  LEU71       0.0284
     76  CG        47.0560   70.7880   -4.9900 C.3    71  LEU71       0.0019
     77  CD1       48.5030   70.3270   -5.0980 C.3    71  LEU71       0.0001
     78  CD2       46.8020   71.9750   -5.8990 C.3    71  LEU71       0.0001
     79  N         43.6140   67.7980   -5.0220 N.am   72  ILE72      -0.1980
     80  CA        42.8490   66.6220   -5.4190 C.3    72  ILE72       0.1595
     81  C         41.4500   67.0080   -5.8860 C.2    72  ILE72       0.2287
     82  O         40.9490   66.4790   -6.8790 O.2    72  ILE72      -0.2864
     83  CB        42.7400   65.5980   -4.2730 C.3    72  ILE72       0.0276
     84  CG1       44.1260   65.0740   -3.8960 C.3    72  ILE72       0.0022
     85  CG2       41.8320   64.4440   -4.6760 C.3    72  ILE72       0.0022
     86  CD1       44.1240   64.1470   -2.7050 C.3    72  ILE72       0.0001
     87  N         41.7390   68.6970   -9.7000 N.3    75  PHE75      -0.1241
     88  CA        41.8970   67.7890  -10.8320 C.3    75  PHE75       0.1605
     89  C         40.7470   66.7880  -10.9260 C.2    75  PHE75       0.2264
     90  O         40.4280   66.3030  -12.0100 O.2    75  PHE75      -0.2867
     91  CB        43.2640   67.0870  -10.8210 C.3    75  PHE75       0.0534
     92  CG        43.3710   65.9450   -9.8440 C.ar   75  PHE75      -0.0203
     93  CD1       44.1940   66.0440   -8.7330 C.ar   75  PHE75      -0.0042
     94  CD2       42.6760   64.7640  -10.0540 C.ar   75  PHE75      -0.0042
     95  CE1       44.3080   64.9950   -7.8430 C.ar   75  PHE75      -0.0003
     96  CE2       42.7830   63.7120   -9.1640 C.ar   75  PHE75      -0.0003
     97  CZ        43.6000   63.8280   -8.0570 C.ar   75  PHE75      -0.0000
     98  N         38.1890   68.6490  -12.6610 N.3    78  ARG78      -0.1245
     99  CA        38.7340   68.8740  -13.9930 C.3    78  ARG78       0.1563
    100  C         38.5760   67.6250  -14.8580 C.2    78  ARG78       0.2260
    101  O         38.5490   67.7080  -16.0850 O.2    78  ARG78      -0.2867
    102  CB        40.2120   69.2700  -13.9110 C.3    78  ARG78       0.0307
    103  CG        40.7970   69.7430  -15.2320 C.3    78  ARG78       0.0489
    104  CD        42.3200   69.8370  -15.1920 C.3    78  ARG78       0.2205
    105  NE        42.8080   70.6720  -14.0970 N.pl3  78  ARG78      -0.0865
    106  CZ        43.6330   70.2480  -13.1440 C.cat  78  ARG78       0.5346
    107  NH1       44.0250   71.0780  -12.1870 N.pl3  78  ARG78       0.1354
    108  NH2       44.0730   68.9980  -13.1540 N.pl3  78  ARG78       0.1354
    109  N         42.0360   60.6170  -15.1560 N.3    86  ILE86      -0.1245
    110  CA        42.0860   61.9960  -14.6890 C.3    86  ILE86       0.1561
    111  C         42.9500   62.8530  -15.6050 C.2    86  ILE86       0.2260
    112  O         43.8740   62.3560  -16.2490 O.2    86  ILE86      -0.2867
    113  CB        42.6200   62.0940  -13.2450 C.3    86  ILE86       0.0252
    114  CG1       44.0710   61.6120  -13.1730 C.3    86  ILE86       0.0019
    115  CG2       41.7420   61.2930  -12.2970 C.3    86  ILE86       0.0019
    116  CD1       44.7090   61.7980  -11.8090 C.3    86  ILE86       0.0001
    117  N         45.6070   65.8500  -15.8090 N.3    88  LEU88      -0.1231
    118  CA        46.5710   66.5720  -14.9860 C.3    88  LEU88       0.1693
    119  C         46.7600   68.0080  -15.4660 C.2    88  LEU88       0.2591
    120  O         46.5060   68.3240  -16.6270 O.2    88  LEU88      -0.2718
    121  CB        47.9150   65.8420  -14.9630 C.3    88  LEU88       0.0284
    122  CG        47.8820   64.4020  -14.4510 C.3    88  LEU88       0.0019
    123  CD1       49.2910   63.8600  -14.2920 C.3    88  LEU88       0.0001
    124  CD2       47.1280   64.3270  -13.1340 C.3    88  LEU88       0.0001
    125  N         47.2140   68.8710  -14.5620 N.am   89  ALA89      -0.1980
    126  CA        47.4350   70.2770  -14.8810 C.3    89  ALA89       0.1597
    127  C         48.5020   70.4470  -15.9580 C.2    89  ALA89       0.2287
    128  O         48.6260   71.5150  -16.5590 O.2    89  ALA89      -0.2864
    129  CB        47.8160   71.0500  -13.6290 C.3    89  ALA89       0.0319
    130  N         48.9020   51.9140   -7.5440 N.3   104  VAL104     -0.1245
    131  CA        48.0550   52.8570   -6.8210 C.3   104  VAL104      0.1561
    132  C         46.6180   52.8290   -7.3350 C.2   104  VAL104      0.2260
    133  O         45.9170   53.8410   -7.3010 O.2   104  VAL104     -0.2867
    134  CB        48.5990   54.2980   -6.9100 C.3   104  VAL104      0.0252
    135  CG1       49.9090   54.4210   -6.1440 C.3   104  VAL104      0.0019
    136  CG2       48.7790   54.7100   -8.3630 C.3   104  VAL104      0.0019
    137  N         43.5700   53.4970   -4.4500 N.3   107  ILE107     -0.1231
    138  CA        43.2600   54.8810   -4.1060 C.3   107  ILE107      0.1692
    139  C         42.8060   55.6720   -5.3300 C.2   107  ILE107      0.2592
    140  O         42.0000   56.5950   -5.2200 O.2   107  ILE107     -0.2718
    141  CB        44.4630   55.5840   -3.4400 C.3   107  ILE107      0.0266
    142  CG1       44.0300   56.9110   -2.8140 C.3   107  ILE107      0.0019
    143  CG2       45.5920   55.7920   -4.4390 C.3   107  ILE107      0.0020
    144  CD1       42.9540   56.7610   -1.7620 C.3   107  ILE107      0.0001
    145  N         43.3200   55.3020   -6.4980 N.am  108  PHE108     -0.1976
    146  CA        42.9420   55.9640   -7.7410 C.3   108  PHE108      0.1639
    147  C         41.4880   55.6600   -8.0790 C.2   108  PHE108      0.2290
    148  O         40.7970   56.4780   -8.6850 O.2   108  PHE108     -0.2864
    149  CB        43.8520   55.5130   -8.8840 C.3   108  PHE108      0.0560
    150  CG        43.7450   56.3610  -10.1200 C.ar  108  PHE108     -0.0200
    151  CD1       44.5460   57.4780  -10.2800 C.ar  108  PHE108     -0.0042
    152  CD2       42.8520   56.0330  -11.1280 C.ar  108  PHE108     -0.0042
    153  CE1       44.4550   58.2580  -11.4170 C.ar  108  PHE108     -0.0003
    154  CE2       42.7560   56.8090  -12.2680 C.ar  108  PHE108     -0.0003
    155  CZ        43.5600   57.9230  -12.4120 C.ar  108  PHE108     -0.0000
    156  N         39.1840   57.8640   -5.9810 N.3   111  VAL111     -0.1245
    157  CA        39.0760   59.1860   -6.5860 C.3   111  VAL111      0.1561
    158  C         38.0650   59.1930   -7.7290 C.2   111  VAL111      0.2260
    159  O         37.2820   60.1330   -7.8700 O.2   111  VAL111     -0.2867
    160  CB        40.4400   59.6790   -7.1130 C.3   111  VAL111      0.0252
    161  CG1       40.2700   60.9460   -7.9380 C.3   111  VAL111      0.0019
    162  CG2       41.4030   59.9080   -5.9560 C.3   111  VAL111      0.0019
    163  N         40.3670   60.3400    1.3020 N.3   190  ILE190     -0.1245
    164  CA        41.2680   60.0980    0.1820 C.3   190  ILE190      0.1561
    165  C         42.5680   60.8790    0.3470 C.2   190  ILE190      0.2260
    166  O         43.6460   60.3850    0.0170 O.2   190  ILE190     -0.2867
    167  CB        40.6070   60.4660   -1.1610 C.3   190  ILE190      0.0252
    168  CG1       39.4560   59.5040   -1.4610 C.3   190  ILE190      0.0019
    169  CG2       41.6290   60.4440   -2.2910 C.3   190  ILE190      0.0019
    170  CD1       38.7850   59.7500   -2.7910 C.3   190  ILE190      0.0001
    171  N         46.3380   59.2960    0.5780 N.3   194  CYS194     -0.1235
    172  CA        47.2910   59.8480   -0.3720 C.3   194  CYS194      0.1677
    173  C         48.6010   60.2020    0.3220 C.2   194  CYS194      0.2270
    174  O         49.6830   59.9550   -0.2100 O.2   194  CYS194     -0.2867
    175  CB        46.7060   61.0870   -1.0490 C.3   194  CYS194      0.0956
    176  SG        47.9010   62.0410   -2.0010 S.3   194  CYS194     -0.0801
    177  N         50.8640   57.2520    1.3530 N.3   197  HIS197     -0.1226
    178  CA        51.7320   56.8390    0.2590 C.3   197  HIS197      0.1752
    179  C         53.0620   57.5850    0.3050 C.2   197  HIS197      0.2595
    180  O         54.1260   56.9690    0.3550 O.2   197  HIS197     -0.2718
    181  CB        51.0460   57.0680   -1.0900 C.3   197  HIS197      0.0759
    182  CG        50.0950   55.9790   -1.4800 C.ar  197  HIS197      0.0818
    183  ND1       48.7490   56.0220   -1.1840 N.ar  197  HIS197     -0.2268
    184  CD2       50.2960   54.8170   -2.1460 C.ar  197  HIS197      0.1154
    185  CE1       48.1630   54.9340   -1.6500 C.ar  197  HIS197      0.1986
    186  NE2       49.0800   54.1860   -2.2390 N.ar  197  HIS197     -0.2212
    187  N         52.9990   58.9140    0.2920 N.am  198  LEU198     -0.1980
    188  CA        54.2110   59.7280    0.3180 C.3   198  LEU198      0.1596
    189  C         54.6970   59.9950    1.7420 C.2   198  LEU198      0.2287
    190  O         55.0980   61.1120    2.0700 O.2   198  LEU198     -0.2864
    191  CB        54.0110   61.0530   -0.4280 C.3   198  LEU198      0.0297
    192  CG        53.0560   62.0930    0.1660 C.3   198  LEU198      0.0022
    193  CD1       53.6670   63.4880    0.1120 C.3   198  LEU198      0.0001
    194  CD2       51.7080   62.0610   -0.5340 C.3   198  LEU198      0.0001
    195  N         58.4690   60.2170    1.5910 N.3   201  PHE201     -0.1241
    196  CA        58.8090   61.4670    0.9210 C.3   201  PHE201      0.1605
    197  C         58.7990   62.6240    1.9130 C.2   201  PHE201      0.2264
    198  O         59.6710   63.4930    1.8810 O.2   201  PHE201     -0.2867
    199  CB        57.8310   61.7410   -0.2230 C.3   201  PHE201      0.0534
    200  CG        58.0810   63.0350   -0.9430 C.ar  201  PHE201     -0.0203
    201  CD1       57.1540   64.0630   -0.8890 C.ar  201  PHE201     -0.0042
    202  CD2       59.2420   63.2240   -1.6740 C.ar  201  PHE201     -0.0042
    203  CE1       57.3800   65.2540   -1.5530 C.ar  201  PHE201     -0.0003
    204  CE2       59.4730   64.4120   -2.3380 C.ar  201  PHE201     -0.0003
    205  CZ        58.5420   65.4290   -2.2770 C.ar  201  PHE201     -0.0000
@<TRIPOS>BOND
     1   120   119    2
     2   128   127    2
     3   112   111    2
     4   101   100    2
     5   127   126    1
     6   117   118    1
     7   111   110    1
     8   119   118    1
     9   119   125   am
    10   103   104    1
    11   103   102    1
    12   104   105    1
    13   109   110    1
    14   118   121    1
    15   121   122    1
    16   126   125    1
    17   126   129    1
    18   100    99    1
    19   110   113    1
    20   122   123    1
    21   122   124    1
    22   105   106    2
    23    99   102    1
    24    99    98    1
    25   113   114    1
    26   113   115    1
    27   114   116    1
    28   108   106    1
    29   106   107    1
    30    26    23    1
    31   155   154   ar
    32   155   153   ar
    33   154   152   ar
    34    90    89    2
    35    23    22    1
    36    23    24    1
    37     8     9    1
    38    39    38    2
    39     1     2    1
    40   153   151   ar
    41   152   150   ar
    42    40    38   am
    43    38    37    1
    44    89    88    1
    45     9    10    1
    46     9    12    1
    47    88    91    1
    48    88    87    1
    49    13    15    1
    50    13    12    1
    51    91    92    1
    52    24    25    2
    53    24    27   am
    54     3     2    1
    55     3     4    2
    56   151   150   ar
    57     2     5    1
    58    37    36    1
    59   150   149    1
    60    94    92   ar
    61    94    96   ar
    62    10    11    2
    63    10    16   am
    64    12    14    1
    65    92    93   ar
    66    16    17    1
    67    27    28    1
    68    18    19    2
    69    18    17    1
    70    32    33    1
    71     5     7    1
    72     5     6    1
    73    96    97   ar
    74   149   146    1
    75    33    36    1
    76    33    34    1
    77    17    20    1
    78    93    95   ar
    79   148   147    2
    80   136   134    1
    81    20    21    1
    82    28    29    1
    83    28    31    1
    84   147   146    1
    85    97    95   ar
    86   161   160    1
    87    29    30    2
    88   159   158    2
    89   146   145    1
    90   158   157    1
    91   130   131    1
    92    34    35    2
    93    34    41   am
    94   132   133    2
    95   132   131    1
    96   160   157    1
    97   160   162    1
    98    74    73    2
    99   134   131    1
   100   134   135    1
   101    41    42    1
   102    82    81    2
   103   157   156    1
   104   145   139   am
   105    78    76    1
   106    81    80    1
   107    73    72    1
   108    73    79   am
   109    43    42    1
   110    43    44    2
   111    42    45    1
   112    80    79    1
   113    80    83    1
   114    75    72    1
   115    75    76    1
   116   139   140    2
   117   139   138    1
   118    72    71    1
   119    77    76    1
   120    45    46    1
   121    85    83    1
   122   137   138    1
   123   143   141    1
   124    83    84    1
   125   138   141    1
   126    46    48    1
   127    46    47    1
   128    84    86    1
   129   141   142    1
   130   142   144    1
   131   170   168    1
   132   204   205   ar
   133   204   202   ar
   134   169   167    1
   135   205   203   ar
   136    66    65    2
   137    61    59   ar
   138    61    62   ar
   139   186   184   ar
   140   186   185   ar
   141   184   182   ar
   142   176   175    1
   143    52    51    2
   144    59    56   ar
   145   202   200   ar
   146   185   183   ar
   147   203   201   ar
   148   182   183   ar
   149   182   181    1
   150    62    60   ar
   151   168   167    1
   152   167   164    1
   153    65    64    1
   154   181   178    1
   155   175   172    1
   156   200   201   ar
   157   200   199    1
   158    64    63    1
   159    64    67    1
   160    51    63   am
   161    51    50    1
   162   194   192    1
   163   191   192    1
   164   191   188    1
   165    56    58   ar
   166    56    54   ar
   167   172   173    1
   168   172   171    1
   169   199   196    1
   170   174   173    2
   171    60    58   ar
   172   166   165    2
   173   193   192    1
   174    53    50    1
   175    53    54    1
   176    50    49    1
   177    67    68    1
   178   164   165    1
   179   164   163    1
   180   178   179    1
   181   178   177    1
   182   187   179   am
   183   187   188    1
   184   179   180    2
   185   188   189    1
   186    58    57   ar
   187    54    55   ar
   188   196   195    1
   189   196   197    1
   190    68    70   am
   191    68    69    2
   192    57    55   ar
   193   189   190    2
   194   198   197    2
