@<TRIPOS>MOLECULE
tmp/3a9fB00.pdb
 174 167 0 0 0
SMALL
GASTEIGER

@<TRIPOS>ATOM
      1  N         27.1500   42.4700   30.3980 N.3    22  ARG22      -0.1231
      2  CA        28.4780   43.0290   30.1520 C.3    22  ARG22       0.1694
      3  C         29.0690   43.7450   31.3600 C.2    22  ARG22       0.2592
      4  O         30.2770   43.7620   31.5370 O.2    22  ARG22      -0.2718
      5  CB        28.4510   43.9790   28.9590 C.3    22  ARG22       0.0321
      6  CG        28.1410   43.2770   27.6220 C.3    22  ARG22       0.0489
      7  CD        29.2300   42.2790   27.2560 C.3    22  ARG22       0.2205
      8  NE        29.0690   41.7740   25.8970 N.pl3  22  ARG22      -0.0865
      9  CZ        28.9600   40.4900   25.5920 C.cat  22  ARG22       0.5346
     10  NH1       28.9760   39.5580   26.5430 N.pl3  22  ARG22       0.1354
     11  NH2       28.8420   40.1400   24.3330 N.pl3  22  ARG22       0.1354
     12  N         28.2090   44.3440   32.1800 N.am   23  CYS23      -0.1970
     13  CA        28.7040   45.2010   33.2410 C.3    23  CYS23       0.1712
     14  C         28.7540   44.5360   34.6060 C.2    23  CYS23       0.2296
     15  O         29.0640   45.2060   35.6010 O.2    23  CYS23      -0.2864
     16  CB        27.9110   46.5050   33.2930 C.3    23  CYS23       0.0983
     17  SG        27.9390   47.4600   31.7070 S.3    23  CYS23      -0.0798
     18  N         30.6700   41.5310   34.6250 N.3    25  LYS25      -0.1231
     19  CA        31.6880   40.5280   34.3310 C.3    25  LYS25       0.1693
     20  C         32.8960   40.5900   35.2320 C.2    25  LYS25       0.2592
     21  O         33.4670   39.5390   35.5680 O.2    25  LYS25      -0.2718
     22  CB        32.1640   40.6320   32.8890 C.3    25  LYS25       0.0285
     23  CG        33.2230   39.5730   32.5590 C.3    25  LYS25       0.0035
     24  CD        33.7620   39.6360   31.1470 C.3    25  LYS25       0.0206
     25  CE        34.6630   38.4290   30.8430 C.3    25  LYS25       0.1093
     26  NZ        35.6840   38.2140   31.8930 N.3    25  LYS25      -0.1314
     27  N         33.3240   41.8060   35.5590 N.am   26  CYS26      -0.1956
     28  CA        34.5410   42.0130   36.3380 C.3    26  CYS26       0.1843
     29  C         34.1250   42.3740   37.7450 C.2    26  CYS26       0.2625
     30  O         34.3060   41.5640   38.6510 O.2    26  CYS26      -0.2714
     31  CB        35.4280   43.0850   35.6850 C.3    26  CYS26       0.0997
     32  SG        36.0070   42.5510   34.0530 S.3    26  CYS26      -0.0797
     33  N         33.5880   43.5730   37.9320 N.am   27  HIS27      -0.1973
     34  CA        32.9450   43.9860   39.1640 C.3    27  HIS27       0.1656
     35  C         31.4470   43.8360   39.0040 C.2    27  HIS27       0.2291
     36  O         30.9270   43.7780   37.8840 O.2    27  HIS27      -0.2864
     37  CB        33.3080   45.4500   39.4920 C.3    27  HIS27       0.0771
     38  CG        33.0840   46.4120   38.3610 C.ar   27  HIS27       0.0820
     39  ND1       31.8590   46.9870   38.0990 N.ar   27  HIS27      -0.2267
     40  CD2       33.9270   46.8750   37.4060 C.ar   27  HIS27       0.1154
     41  CE1       31.9580   47.7720   37.0380 C.ar   27  HIS27       0.1986
     42  NE2       33.2010   47.7060   36.5800 N.ar   27  HIS27      -0.2212
     43  N         27.7740   45.3790   38.7730 N.3    29  LEU29      -0.1245
     44  CA        27.2550   46.6950   38.4520 C.3    29  LEU29       0.1561
     45  C         26.7870   47.4070   39.7310 C.2    29  LEU29       0.2260
     46  O         26.9540   48.6310   39.8810 O.2    29  LEU29      -0.2867
     47  CB        26.1100   46.5560   37.4370 C.3    29  LEU29       0.0270
     48  CG        25.5070   47.8530   36.8930 C.3    29  LEU29       0.0019
     49  CD1       26.5010   48.8570   36.3530 C.3    29  LEU29       0.0001
     50  CD2       24.5100   47.4880   35.8030 C.3    29  LEU29       0.0001
     51  N         29.2730   49.7960   41.5640 N.3    32  VAL32      -0.1245
     52  CA        29.5270   51.1400   41.0220 C.3    32  VAL32       0.1561
     53  C         28.2470   51.9170   40.6990 C.2    32  VAL32       0.2260
     54  O         28.3170   53.0240   40.1430 O.2    32  VAL32      -0.2867
     55  CB        30.4170   51.0870   39.7310 C.3    32  VAL32       0.0252
     56  CG1       31.8050   50.5350   40.0340 C.3    32  VAL32       0.0019
     57  CG2       29.7320   50.2390   38.6300 C.3    32  VAL32       0.0019
     58  N         27.6830   55.5410   42.3700 N.3    35  LEU35      -0.1231
     59  CA        28.6720   56.4040   41.7420 C.3    35  LEU35       0.1693
     60  C         28.2660   56.7530   40.3030 C.2    35  LEU35       0.2592
     61  O         28.2830   57.9110   39.9010 O.2    35  LEU35      -0.2718
     62  CB        30.0480   55.7230   41.7410 C.3    35  LEU35       0.0284
     63  CG        31.1350   56.4420   40.9390 C.3    35  LEU35       0.0019
     64  CD1       31.6540   57.6560   41.6710 C.3    35  LEU35       0.0001
     65  CD2       32.2880   55.4980   40.6970 C.3    35  LEU35       0.0001
     66  N         27.9040   55.7430   39.5190 N.am   36  PHE36      -0.1976
     67  CA        27.5960   56.0010   38.1400 C.3    36  PHE36       0.1639
     68  C         26.3790   56.9150   37.9800 C.2    36  PHE36       0.2290
     69  O         26.4040   57.8920   37.2070 O.2    36  PHE36      -0.2864
     70  CB        27.3970   54.6950   37.3670 C.3    36  PHE36       0.0560
     71  CG        27.1240   54.9100   35.9120 C.ar   36  PHE36      -0.0200
     72  CD1       28.1640   54.8840   34.9970 C.ar   36  PHE36      -0.0042
     73  CD2       25.8310   55.1740   35.4570 C.ar   36  PHE36      -0.0042
     74  CE1       27.9400   55.1080   33.6390 C.ar   36  PHE36      -0.0003
     75  CE2       25.5870   55.4050   34.1020 C.ar   36  PHE36      -0.0003
     76  CZ        26.6450   55.3700   33.1940 C.ar   36  PHE36      -0.0000
     77  N         28.0680   60.2040   36.5290 N.3    40  TYR40      -0.1241
     78  CA        28.3040   60.0180   35.0920 C.3    40  TYR40       0.1605
     79  C         27.0320   60.0600   34.2500 C.2    40  TYR40       0.2264
     80  O         27.0420   60.6180   33.1590 O.2    40  TYR40      -0.2867
     81  CB        29.1380   58.7510   34.8190 C.3    40  TYR40       0.0534
     82  CG        30.4250   58.7290   35.6210 C.ar   40  TYR40      -0.0201
     83  CD1       31.3340   59.7930   35.5520 C.ar   40  TYR40      -0.0009
     84  CD2       30.7260   57.6510   36.4500 C.ar   40  TYR40      -0.0009
     85  CE1       32.5090   59.7910   36.3090 C.ar   40  TYR40       0.0417
     86  CE2       31.9010   57.6300   37.2120 C.ar   40  TYR40       0.0417
     87  CZ        32.7800   58.7060   37.1370 C.ar   40  TYR40       0.1957
     88  OH        33.9270   58.6750   37.8860 O.3    40  TYR40      -0.2866
     89  N         32.7810   56.3840   30.2840 N.3    49  ILE49      -0.1231
     90  CA        32.8490   55.1820   31.0700 C.3    49  ILE49       0.1692
     91  C         32.7440   53.9460   30.1780 C.2    49  ILE49       0.2591
     92  O         33.5690   53.0550   30.2570 O.2    49  ILE49      -0.2718
     93  CB        31.7440   55.1430   32.1580 C.3    49  ILE49       0.0266
     94  CG1       31.8300   56.3530   33.1150 C.3    49  ILE49       0.0019
     95  CG2       31.7870   53.8210   32.9310 C.3    49  ILE49       0.0020
     96  CD1       33.1860   56.5420   33.7740 C.3    49  ILE49       0.0001
     97  N         31.7310   53.9000   29.3220 N.am   50  VAL50      -0.1980
     98  CA        31.5350   52.7050   28.5140 C.3    50  VAL50       0.1595
     99  C         32.7350   52.4390   27.6040 C.2    50  VAL50       0.2287
    100  O         33.1700   51.2820   27.4920 O.2    50  VAL50      -0.2864
    101  CB        30.2340   52.7900   27.7040 C.3    50  VAL50       0.0276
    102  CG1       30.0840   51.5350   26.8110 C.3    50  VAL50       0.0022
    103  CG2       29.0360   52.9070   28.6400 C.3    50  VAL50       0.0022
    104  N         35.8320   53.3510   28.0670 N.3    52  ARG52      -0.1231
    105  CA        36.9720   52.9270   28.8760 C.3    52  ARG52       0.1694
    106  C         36.8370   51.4380   29.2220 C.2    52  ARG52       0.2591
    107  O         37.7790   50.6650   29.0550 O.2    52  ARG52      -0.2718
    108  CB        37.1070   53.7760   30.1470 C.3    52  ARG52       0.0321
    109  CG        38.2220   53.2940   31.0470 C.3    52  ARG52       0.0489
    110  CD        38.6140   54.3260   32.1050 C.3    52  ARG52       0.2205
    111  NE        39.6080   53.7310   33.0090 N.pl3  52  ARG52      -0.0865
    112  CZ        40.8790   53.4890   32.6830 C.cat  52  ARG52       0.5346
    113  NH1       41.3830   53.9280   31.5300 N.pl3  52  ARG52       0.1354
    114  NH2       41.6600   52.8410   33.5400 N.pl3  52  ARG52       0.1354
    115  N         35.6550   51.0330   29.6850 N.am   53  MET53      -0.1979
    116  CA        35.4570   49.6330   30.0180 C.3    53  MET53       0.1605
    117  C         35.6390   48.7450   28.7850 C.2    53  MET53       0.2287
    118  O         36.2600   47.6810   28.8600 O.2    53  MET53      -0.2864
    119  CB        34.0790   49.4170   30.6450 C.3    53  MET53       0.0413
    120  CG        33.7940   50.2680   31.8960 C.3    53  MET53       0.0598
    121  SD        34.9750   49.8800   33.2090 S.3    53  MET53      -0.1393
    122  CE        35.4730   51.5440   33.6660 C.3    53  MET53       0.0692
    123  N         39.2120   47.6610   27.9950 N.3    56  PHE56      -0.1228
    124  CA        39.9610   46.7840   28.8670 C.3    56  PHE56       0.1721
    125  C         40.0760   45.3790   28.2690 C.2    56  PHE56       0.2437
    126  O         39.1110   44.8760   27.6910 O.2    56  PHE56      -0.2733
    127  CB        39.3040   46.6800   30.2390 C.3    56  PHE56       0.0547
    128  CG        39.3270   47.9450   31.0580 C.ar   56  PHE56      -0.0202
    129  CD1       40.2360   48.9690   30.8140 C.ar   56  PHE56      -0.0042
    130  CD2       38.4490   48.0740   32.1240 C.ar   56  PHE56      -0.0042
    131  CE1       40.2610   50.1200   31.6190 C.ar   56  PHE56      -0.0003
    132  CE2       38.4730   49.2170   32.9410 C.ar   56  PHE56      -0.0003
    133  CZ        39.3720   50.2470   32.6700 C.ar   56  PHE56      -0.0000
    134  N         41.2290   44.7410   28.4550 N.am   57  PRO57      -0.2718
    135  CA        41.3470   43.3240   28.0880 C.3    57  PRO57       0.1535
    136  C         40.2370   42.5100   28.7500 C.2    57  PRO57       0.2599
    137  O         39.9450   42.6930   29.9320 O.2    57  PRO57      -0.2715
    138  CB        42.7240   42.9310   28.6460 C.3    57  PRO57       0.0310
    139  CG        43.4800   44.2060   28.6520 C.3    57  PRO57       0.0237
    140  CD        42.4840   45.2770   29.0210 C.3    57  PRO57       0.0939
    141  N         39.6150   41.6360   27.9700 N.am   58  GLY58      -0.1941
    142  CA        38.6080   40.7490   28.5100 C.3    58  GLY58       0.2014
    143  C         37.2250   41.3600   28.6870 C.2    58  GLY58       0.2639
    144  O         36.3120   40.7230   29.2310 O.2    58  GLY58      -0.2714
    145  N         37.0200   42.5790   28.1920 N.am   59  SER59      -0.1949
    146  CA        35.7020   43.1960   28.3670 C.3    59  SER59       0.1924
    147  C         34.6230   42.4700   27.5750 C.2    59  SER59       0.2314
    148  O         33.4640   42.4170   27.9770 O.2    59  SER59      -0.2863
    149  CB        35.7170   44.6610   27.9480 C.3    59  SER59       0.2116
    150  OG        35.7650   44.7840   26.5340 O.3    59  SER59      -0.2180
    151  N         33.2210   43.5780   25.0370 N.3    61  ILE61      -0.1245
    152  CA        32.2560   44.5710   24.5670 C.3    61  ILE61       0.1561
    153  C         32.5690   44.9790   23.1330 C.2    61  ILE61       0.2260
    154  O         33.6200   45.5560   22.8640 O.2    61  ILE61      -0.2867
    155  CB        32.2580   45.8080   25.5150 C.3    61  ILE61       0.0252
    156  CG1       31.7960   45.3970   26.9200 C.3    61  ILE61       0.0019
    157  CG2       31.3690   46.9320   24.9700 C.3    61  ILE61       0.0019
    158  CD1       32.0230   46.4560   28.0120 C.3    61  ILE61       0.0001
    159  N         24.6200   49.8310   25.1570 N.3    69  ILE69      -0.1245
    160  CA        24.8200   49.9660   26.5840 C.3    69  ILE69       0.1561
    161  C         24.7760   51.4320   27.0010 C.2    69  ILE69       0.2260
    162  O         24.1170   51.7770   27.9880 O.2    69  ILE69      -0.2867
    163  CB        26.1550   49.3160   26.9920 C.3    69  ILE69       0.0252
    164  CG1       26.0690   47.7810   26.9300 C.3    69  ILE69       0.0019
    165  CG2       26.6050   49.8010   28.3980 C.3    69  ILE69       0.0019
    166  CD1       27.4150   47.1180   26.9370 C.3    69  ILE69       0.0001
    167  N         22.1160   53.0220   29.7000 N.3    73  LEU73      -0.1245
    168  CA        22.6420   53.6210   30.9340 C.3    73  LEU73       0.1561
    169  C         22.2270   55.0760   31.0420 C.2    73  LEU73       0.2260
    170  O         21.8420   55.5540   32.1210 O.2    73  LEU73      -0.2867
    171  CB        24.1680   53.4980   30.9880 C.3    73  LEU73       0.0270
    172  CG        24.7140   52.0980   31.2690 C.3    73  LEU73       0.0019
    173  CD1       26.2250   52.1060   31.0770 C.3    73  LEU73       0.0001
    174  CD2       24.3360   51.6400   32.6870 C.3    73  LEU73       0.0001
@<TRIPOS>BOND
     1   154   153    2
     2   153   152    1
     3    11     9    1
     4   152   151    1
     5   152   155    1
     6   157   155    1
     7   159   160    1
     8   155   156    1
     9     9     8    2
    10     9    10    1
    11     8     7    1
    12   150   149    1
    13   160   163    1
    14   160   161    1
    15   102   101    1
    16   156   158    1
    17   164   166    1
    18   164   163    1
    19   163   165    1
    20   161   162    2
    21     7     6    1
    22   100    99    2
    23   147   148    2
    24   147   146    1
    25    99    98    1
    26     6     5    1
    27   126   125    2
    28   101    98    1
    29   101   103    1
    30   149   146    1
    31   141   142    1
    32   141   136   am
    33   123   124    1
    34   104   105    1
    35   135   134    1
    36   135   138    1
    37   135   136    1
    38   145   146    1
    39   145   143   am
    40   125   134   am
    41   125   124    1
    42   134   140    1
    43   142   143    1
    44    98    97    1
    45   138   139    1
    46   139   140    1
    47   143   144    2
    48   136   137    2
    49   117   118    2
    50   117   116    1
    51   124   127    1
    52   105   106    1
    53   105   108    1
    54     5     2    1
    55   107   106    2
    56   106   115   am
    57    97    91   am
    58   115   116    1
    59   167   168    1
    60   116   119    1
    61   108   109    1
    62     2     1    1
    63     2     3    1
    64    91    92    2
    65    91    90    1
    66   127   128    1
    67    89    90    1
    68   119   120    1
    69   129   128   ar
    70   129   131   ar
    71    25    24    1
    72    25    26    1
    73   168   171    1
    74   168   169    1
    75   171   172    1
    76   169   170    2
    77   109   110    1
    78   128   130   ar
    79    90    93    1
    80   173   172    1
    81    24    23    1
    82   172   174    1
    83     3     4    2
    84     3    12   am
    85   113   112    1
    86   131   133   ar
    87    17    16    1
    88   120   121    1
    89   110   111    1
    90   130   132   ar
    91    93    95    1
    92    93    94    1
    93    12    13    1
    94    23    22    1
    95   133   132   ar
    96   112   111    2
    97   112   114    1
    98    22    19    1
    99    94    96    1
   100    80    79    2
   101    76    74   ar
   102    76    75   ar
   103   121   122    1
   104    13    16    1
   105    13    14    1
   106    74    72   ar
   107    32    31    1
   108    75    73   ar
   109    79    78    1
   110    19    18    1
   111    19    20    1
   112    14    15    2
   113    81    78    1
   114    81    82    1
   115    72    71   ar
   116    78    77    1
   117    20    27   am
   118    20    21    2
   119    73    71   ar
   120    83    82   ar
   121    83    85   ar
   122    27    28    1
   123    82    84   ar
   124    31    28    1
   125    50    48    1
   126    71    70    1
   127    85    87   ar
   128    28    29    1
   129    49    48    1
   130    84    86   ar
   131    42    41   ar
   132    42    40   ar
   133    48    47    1
   134    41    39   ar
   135    87    86   ar
   136    87    88    1
   137    69    68    2
   138    70    67    1
   139    40    38   ar
   140    47    44    1
   141    29    33   am
   142    29    30    2
   143    36    35    2
   144    33    34    1
   145    68    67    1
   146    39    38   ar
   147    67    66    1
   148    38    37    1
   149    44    43    1
   150    44    45    1
   151    57    55    1
   152    35    34    1
   153    34    37    1
   154    66    60   am
   155    45    46    2
   156    55    56    1
   157    55    52    1
   158    61    60    2
   159    54    53    2
   160    60    59    1
   161    65    63    1
   162    53    52    1
   163    63    64    1
   164    63    62    1
   165    52    51    1
   166    62    59    1
   167    59    58    1
