@<TRIPOS>MOLECULE
tmp/3a9fA00.pdb
 183 176 0 0 0
SMALL
GASTEIGER

@<TRIPOS>ATOM
      1  N         20.6790   37.8330   22.1730 N.3    23  ARG23      -0.1231
      2  CA        21.2640   37.4460   20.8940 C.3    23  ARG23       0.1694
      3  C         20.3100   36.6730   19.9900 C.2    23  ARG23       0.2592
      4  O         20.4500   36.7300   18.7770 O.2    23  ARG23      -0.2718
      5  CB        22.5390   36.6250   21.0920 C.3    23  ARG23       0.0321
      6  CG        23.6850   37.3980   21.7480 C.3    23  ARG23       0.0489
      7  CD        24.0960   38.6230   20.9580 C.3    23  ARG23       0.2205
      8  NE        25.3230   39.2010   21.5060 N.pl3  23  ARG23      -0.0865
      9  CZ        25.5640   40.5120   21.6020 C.cat  23  ARG23       0.5346
     10  NH1       24.6430   41.4010   21.2480 N.pl3  23  ARG23       0.1354
     11  NH2       26.7340   40.9420   22.0670 N.pl3  23  ARG23       0.1354
     12  N         19.3600   35.9480   20.5680 N.am   24  CYS24      -0.1970
     13  CA        18.5540   35.0160   19.7850 C.3    24  CYS24       0.1712
     14  C         17.1340   35.5040   19.5400 C.2    24  CYS24       0.2296
     15  O         16.2870   34.7220   19.1000 O.2    24  CYS24      -0.2864
     16  CB        18.5510   33.6280   20.4380 C.3    24  CYS24       0.0983
     17  SG        20.1970   32.9240   20.6400 S.3    24  CYS24      -0.0798
     18  N         16.8730   38.7850   17.8330 N.3    26  LYS26      -0.1231
     19  CA        17.1030   39.9520   16.9800 C.3    26  LYS26       0.1693
     20  C         16.5140   39.7930   15.5850 C.2    26  LYS26       0.2592
     21  O         15.8760   40.7150   15.0630 O.2    26  LYS26      -0.2718
     22  CB        18.5950   40.2480   16.8620 C.3    26  LYS26       0.0285
     23  CG        19.1810   40.9000   18.1010 C.3    26  LYS26       0.0035
     24  CD        18.6530   42.3380   18.2980 C.3    26  LYS26       0.0206
     25  CE        19.4260   43.1090   19.3650 C.3    26  LYS26       0.1093
     26  NZ        19.3400   42.4530   20.6820 N.3    26  LYS26      -0.1314
     27  N         16.7480   38.6400   14.9580 N.am   27  CYS27      -0.1956
     28  CA        16.2870   38.4300   13.5720 C.3    27  CYS27       0.1843
     29  C         14.9670   37.7060   13.4740 C.2    27  CYS27       0.2625
     30  O         14.2670   37.8060   12.4710 O.2    27  CYS27      -0.2714
     31  CB        17.3360   37.6580   12.7930 C.3    27  CYS27       0.0997
     32  SG        18.9210   38.5050   12.7340 S.3    27  CYS27      -0.0797
     33  N         14.6750   36.9260   14.5020 N.am   28  HIS28      -0.1973
     34  CA        13.4440   36.1810   14.6580 C.3    28  HIS28       0.1656
     35  C         13.3190   35.9320   16.1470 C.2    28  HIS28       0.2291
     36  O         14.3210   35.9390   16.8760 O.2    28  HIS28      -0.2864
     37  CB        13.5040   34.8350   13.9030 C.3    28  HIS28       0.0771
     38  CG        14.6750   33.9660   14.2890 C.ar   28  HIS28       0.0820
     39  ND1       14.6720   33.1470   15.4050 N.ar   28  HIS28      -0.2267
     40  CD2       15.8710   33.7650   13.6840 C.ar   28  HIS28       0.1154
     41  CE1       15.8200   32.5010   15.4820 C.ar   28  HIS28       0.1986
     42  NE2       16.5690   32.8490   14.4510 N.ar   28  HIS28      -0.2212
     43  N         13.0930   33.6590   19.3880 N.3    30  LEU30      -0.1245
     44  CA        13.4890   32.3060   19.7110 C.3    30  LEU30       0.1561
     45  C         12.2390   31.4280   19.7750 C.2    30  LEU30       0.2260
     46  O         12.2660   30.2730   19.3310 O.2    30  LEU30      -0.2867
     47  CB        14.2930   32.2720   21.0140 C.3    30  LEU30       0.0270
     48  CG        14.8400   30.9230   21.4600 C.3    30  LEU30       0.0019
     49  CD1       15.6680   30.2650   20.3510 C.3    30  LEU30       0.0001
     50  CD2       15.6710   31.0950   22.7270 C.3    30  LEU30       0.0001
     51  N         11.1290   29.4250   16.6390 N.3    33  VAL33      -0.1245
     52  CA        11.9370   28.2880   16.2190 C.3    33  VAL33       0.1561
     53  C         12.1850   27.3010   17.3570 C.2    33  VAL33       0.2260
     54  O         12.9780   26.3750   17.2010 O.2    33  VAL33      -0.2867
     55  CB        13.2940   28.7220   15.6020 C.3    33  VAL33       0.0252
     56  CG1       13.0760   29.5300   14.3080 C.3    33  VAL33       0.0019
     57  CG2       14.1420   29.5090   16.6040 C.3    33  VAL33       0.0019
     58  N         11.3000   23.4120   16.8160 N.3    36  LEU36      -0.1231
     59  CA        12.2860   22.9260   15.8720 C.3    36  LEU36       0.1693
     60  C         13.6520   22.8280   16.5460 C.2    36  LEU36       0.2592
     61  O         14.3680   21.8400   16.3780 O.2    36  LEU36      -0.2718
     62  CB        12.3570   23.8730   14.6780 C.3    36  LEU36       0.0284
     63  CG        13.2280   23.5220   13.4720 C.3    36  LEU36       0.0019
     64  CD1       12.7590   24.3470   12.3030 C.3    36  LEU36       0.0001
     65  CD2       14.6860   23.7900   13.7340 C.3    36  LEU36       0.0001
     66  N         14.0240   23.8570   17.3010 N.am   37  PHE37      -0.1976
     67  CA        15.2950   23.8110   18.0000 C.3    37  PHE37       0.1639
     68  C         15.4070   22.5650   18.8740 C.2    37  PHE37       0.2290
     69  O         16.4240   21.8630   18.8430 O.2    37  PHE37      -0.2864
     70  CB        15.5200   25.0570   18.8520 C.3    37  PHE37       0.0560
     71  CG        16.7590   24.9660   19.6770 C.ar   37  PHE37      -0.0200
     72  CD1       18.0040   25.1930   19.1050 C.ar   37  PHE37      -0.0042
     73  CD2       16.6940   24.5450   21.0050 C.ar   37  PHE37      -0.0042
     74  CE1       19.1680   25.0700   19.8660 C.ar   37  PHE37      -0.0003
     75  CE2       17.8530   24.4240   21.7700 C.ar   37  PHE37      -0.0003
     76  CZ        19.0870   24.6800   21.1950 C.ar   37  PHE37      -0.0000
     77  N         15.2280   19.1580   16.4910 N.3    40  LYS40      -0.1231
     78  CA        16.2470   19.0060   15.4610 C.3    40  LYS40       0.1693
     79  C         17.6730   19.1550   15.9820 C.2    40  LYS40       0.2592
     80  O         18.5950   18.5470   15.4430 O.2    40  LYS40      -0.2718
     81  CB        15.9750   19.9890   14.3150 C.3    40  LYS40       0.0285
     82  CG        16.9160   19.8980   13.1250 C.3    40  LYS40       0.0035
     83  CD        16.3660   20.7120   11.9530 C.3    40  LYS40       0.0206
     84  CE        17.3190   20.7160   10.7750 C.3    40  LYS40       0.1093
     85  NZ        16.7620   21.5480    9.6610 N.3    40  LYS40      -0.1314
     86  N         17.8620   19.9910   17.0020 N.am   41  TYR41      -0.1976
     87  CA        19.2080   20.3180   17.4610 C.3    41  TYR41       0.1639
     88  C         19.4940   19.8670   18.8800 C.2    41  TYR41       0.2290
     89  O         20.4900   19.1930   19.1100 O.2    41  TYR41      -0.2864
     90  CB        19.5020   21.8140   17.2670 C.3    41  TYR41       0.0560
     91  CG        19.4050   22.2310   15.8160 C.ar   41  TYR41      -0.0198
     92  CD1       20.3960   21.8710   14.9030 C.ar   41  TYR41      -0.0009
     93  CD2       18.3150   22.9630   15.3510 C.ar   41  TYR41      -0.0009
     94  CE1       20.3050   22.2250   13.5570 C.ar   41  TYR41       0.0417
     95  CE2       18.2230   23.3310   14.0090 C.ar   41  TYR41       0.0417
     96  CZ        19.2200   22.9750   13.1250 C.ar   41  TYR41       0.1957
     97  OH        19.1020   23.3240   11.8000 O.3    41  TYR41      -0.2866
     98  N         24.0350   24.6450   15.5230 N.3    50  ILE50      -0.1231
     99  CA        23.0970   25.6780   15.1080 C.3    50  ILE50       0.1692
    100  C         23.5150   27.0680   15.6300 C.2    50  ILE50       0.2591
    101  O         23.3550   28.0740   14.9170 O.2    50  ILE50      -0.2718
    102  CB        21.6140   25.3110   15.4150 C.3    50  ILE50       0.0266
    103  CG1       20.6480   26.2450   14.6730 C.3    50  ILE50       0.0019
    104  CG2       21.3080   25.3040   16.9030 C.3    50  ILE50       0.0020
    105  CD1       20.7670   26.2300   13.1580 C.3    50  ILE50       0.0001
    106  N         24.0760   27.1430   16.8420 N.am   51  VAL51      -0.1980
    107  CA        24.5010   28.4440   17.3860 C.3    51  VAL51       0.1595
    108  C         25.6060   29.0280   16.5120 C.2    51  VAL51       0.2287
    109  O         25.5820   30.2320   16.1960 O.2    51  VAL51      -0.2864
    110  CB        24.9260   28.3090   18.8490 C.3    51  VAL51       0.0276
    111  CG1       25.5650   29.5910   19.3600 C.3    51  VAL51       0.0022
    112  CG2       23.7070   27.9300   19.7140 C.3    51  VAL51       0.0022
    113  N         26.1220   28.3570   13.3260 N.3    53  ARG53      -0.1231
    114  CA        25.5170   28.7640   12.0610 C.3    53  ARG53       0.1694
    115  C         24.9320   30.1650   12.1850 C.2    53  ARG53       0.2591
    116  O         25.1830   31.0320   11.3410 O.2    53  ARG53      -0.2718
    117  CB        24.4390   27.7790   11.6350 C.3    53  ARG53       0.0321
    118  CG        23.9130   28.0390   10.2550 C.3    53  ARG53       0.0489
    119  CD        23.0500   26.8870    9.8180 C.3    53  ARG53       0.2205
    120  NE        23.8000   25.6380    9.7250 N.pl3  53  ARG53      -0.0865
    121  CZ        23.2450   24.4340    9.6410 C.cat  53  ARG53       0.5346
    122  NH1       21.9270   24.3050    9.6490 N.pl3  53  ARG53       0.1354
    123  NH2       24.0060   23.3550    9.5550 N.pl3  53  ARG53       0.1354
    124  N         24.1640   30.3990   13.2460 N.am   54  MET54      -0.1979
    125  CA        23.6030   31.7290   13.4700 C.3    54  MET54       0.1605
    126  C         24.6960   32.7850   13.6330 C.2    54  MET54       0.2287
    127  O         24.6070   33.8810   13.0650 O.2    54  MET54      -0.2864
    128  CB        22.6580   31.7080   14.6730 C.3    54  MET54       0.0413
    129  CG        21.5110   30.7240   14.5110 C.3    54  MET54       0.0598
    130  SD        20.3760   31.2560   13.1830 S.3    54  MET54      -0.1393
    131  CE        20.2050   29.6590   12.3820 C.3    54  MET54       0.0692
    132  N         26.0120   34.2240   10.3780 N.3    57  PHE57      -0.1228
    133  CA        25.1640   35.0820    9.5420 C.3    57  PHE57       0.1721
    134  C         25.5540   36.5550    9.7080 C.2    57  PHE57       0.2437
    135  O         25.8990   36.9910   10.8020 O.2    57  PHE57      -0.2733
    136  CB        23.6820   34.9290    9.9030 C.3    57  PHE57       0.0547
    137  CG        23.0690   33.5960    9.5320 C.ar   57  PHE57      -0.0202
    138  CD1       23.7050   32.7020    8.6640 C.ar   57  PHE57      -0.0042
    139  CD2       21.8380   33.2420   10.0590 C.ar   57  PHE57      -0.0042
    140  CE1       23.1120   31.4730    8.3320 C.ar   57  PHE57      -0.0003
    141  CE2       21.2250   32.0260    9.7130 C.ar   57  PHE57      -0.0003
    142  CZ        21.8750   31.1430    8.8560 C.ar   57  PHE57      -0.0000
    143  N         25.4720   37.3420    8.6240 N.am   58  PRO58      -0.2718
    144  CA        25.7880   38.7710    8.7430 C.3    58  PRO58       0.1535
    145  C         24.9130   39.4680    9.7720 C.2    58  PRO58       0.2599
    146  O         23.6950   39.2470    9.8020 O.2    58  PRO58      -0.2715
    147  CB        25.4790   39.3370    7.3440 C.3    58  PRO58       0.0310
    148  CG        25.2960   38.1840    6.4730 C.3    58  PRO58       0.0237
    149  CD        24.9910   36.9780    7.2820 C.3    58  PRO58       0.0939
    150  N         25.5330   40.3050   10.6020 N.am   59  GLY59      -0.1941
    151  CA        24.8090   41.1040   11.5830 C.3    59  GLY59       0.2014
    152  C         24.3870   40.3430   12.8220 C.2    59  GLY59       0.2639
    153  O         23.6400   40.8790   13.6340 O.2    59  GLY59      -0.2714
    154  N         24.8770   39.1130   13.0080 N.am   60  SER60      -0.1949
    155  CA        24.4680   38.3210   14.1710 C.3    60  SER60       0.1924
    156  C         24.8970   38.9660   15.4870 C.2    60  SER60       0.2314
    157  O         24.2540   38.7580   16.5150 O.2    60  SER60      -0.2863
    158  CB        25.0430   36.9110   14.0920 C.3    60  SER60       0.2116
    159  OG        26.4170   36.9290   14.4230 O.3    60  SER60      -0.2180
    160  N         27.1410   37.9930   17.3700 N.3    62  ILE62      -0.1245
    161  CA        27.4920   36.9180   18.3080 C.3    62  ILE62       0.1561
    162  C         28.9980   36.6920   18.3100 C.2    62  ILE62       0.2260
    163  O         29.5840   36.3230   17.2820 O.2    62  ILE62      -0.2867
    164  CB        26.7280   35.6170   17.9520 C.3    62  ILE62       0.0252
    165  CG1       25.2170   35.8320   18.1080 C.3    62  ILE62       0.0019
    166  CG2       27.1990   34.4410   18.8090 C.3    62  ILE62       0.0019
    167  CD1       24.3560   34.7230   17.4660 C.3    62  ILE62       0.0001
    168  N         25.7990   30.8240   25.1890 N.3    70  ILE70      -0.1245
    169  CA        24.4810   30.5410   24.6620 C.3    70  ILE70       0.1561
    170  C         24.2920   29.0450   24.4790 C.2    70  ILE70       0.2260
    171  O         23.2490   28.5040   24.8450 O.2    70  ILE70      -0.2867
    172  CB        24.2670   31.3100   23.3330 C.3    70  ILE70       0.0252
    173  CG1       24.1330   32.8040   23.6290 C.3    70  ILE70       0.0019
    174  CG2       23.0330   30.7610   22.5670 C.3    70  ILE70       0.0019
    175  CD1       24.2620   33.6990   22.3930 C.3    70  ILE70       0.0001
    176  N         21.3540   26.8910   26.2980 N.3    74  LEU74      -0.1245
    177  CA        20.3560   26.1750   25.5020 C.3    74  LEU74       0.1561
    178  C         20.4440   24.6660   25.7480 C.2    74  LEU74       0.2260
    179  O         19.4060   23.9920   25.8750 O.2    74  LEU74      -0.2867
    180  CB        20.5300   26.4610   24.0230 C.3    74  LEU74       0.0270
    181  CG        20.1680   27.8730   23.5890 C.3    74  LEU74       0.0019
    182  CD1       20.6910   28.0990   22.1650 C.3    74  LEU74       0.0001
    183  CD2       18.6510   28.1190   23.6920 C.3    74  LEU74       0.0001
@<TRIPOS>BOND
     1   148   149    1
     2   148   147    1
     3   149   143    1
     4   147   144    1
     5   140   138   ar
     6   140   142   ar
     7   143   144    1
     8   143   134   am
     9   138   137   ar
    10   144   145    1
    11   142   141   ar
    12   137   136    1
    13   137   139   ar
    14   133   134    1
    15   133   136    1
    16   133   132    1
    17   123   121    1
    18   121   122    1
    19   121   120    2
    20    85    84    1
    21   134   135    2
    22   141   139   ar
    23   120   119    1
    24   145   146    2
    25   145   150   am
    26   119   118    1
    27   118   117    1
    28   150   151    1
    29    84    83    1
    30   116   115    2
    31   151   152    1
    32   117   114    1
    33    97    96    1
    34    83    82    1
    35   114   115    1
    36   114   113    1
    37   115   124   am
    38    64    63    1
    39   131   130    1
    40    30    29    2
    41    32    31    1
    42    31    28    1
    43   152   154   am
    44   152   153    2
    45   154   155    1
    46   127   126    2
    47    82    81    1
    48    96    94   ar
    49    96    95   ar
    50   105   103    1
    51   130   129    1
    52   124   125    1
    53   125   126    1
    54   125   128    1
    55    63    65    1
    56    63    62    1
    57    29    28    1
    58    29    33   am
    59    94    92   ar
    60    28    27    1
    61    40    38   ar
    62    40    42   ar
    63    37    38    1
    64    37    34    1
    65    95    93   ar
    66   158   155    1
    67   158   159    1
    68   155   156    1
    69    38    39   ar
    70    56    55    1
    71    81    78    1
    72    42    41   ar
    73    33    34    1
    74   129   128    1
    75    34    35    1
    76   103   102    1
    77    62    59    1
    78    92    91   ar
    79   101   100    2
    80    27    20   am
    81    21    20    2
    82    99   102    1
    83    99    98    1
    84    99   100    1
    85    93    91   ar
    86    39    41   ar
    87   102   104    1
    88    80    79    2
    89    78    79    1
    90    78    77    1
    91   156   157    2
    92    20    19    1
    93    55    52    1
    94    55    57    1
    95   100   106   am
    96    91    90    1
    97    59    60    1
    98    59    58    1
    99    79    86   am
   100    35    36    2
   101   109   108    2
   102    52    51    1
   103    52    53    1
   104    61    60    2
   105   108   107    1
   106    60    66   am
   107   106   107    1
   108    22    19    1
   109    22    23    1
   110    19    18    1
   111    86    87    1
   112    54    53    2
   113    90    87    1
   114   163   162    2
   115    66    67    1
   116   160   161    1
   117   107   110    1
   118    87    88    1
   119   167   165    1
   120   164   165    1
   121   164   161    1
   122   164   166    1
   123    67    70    1
   124    67    68    1
   125    23    24    1
   126    24    25    1
   127   161   162    1
   128     4     3    2
   129    69    68    2
   130   110   111    1
   131   110   112    1
   132    70    71    1
   133    88    89    2
   134    15    14    2
   135    72    71   ar
   136    72    74   ar
   137    46    45    2
   138    25    26    1
   139    43    44    1
   140    14    13    1
   141    71    73   ar
   142    44    45    1
   143    44    47    1
   144    13    16    1
   145    13    12    1
   146    74    76   ar
   147     3    12   am
   148     3     2    1
   149    49    48    1
   150    16    17    1
   151     2     5    1
   152     2     1    1
   153     7     8    1
   154     7     6    1
   155    73    75   ar
   156    47    48    1
   157     5     6    1
   158    76    75   ar
   159    10     9    1
   160    48    50    1
   161     8     9    2
   162     9    11    1
   163   182   181    1
   164   175   173    1
   165   174   172    1
   166   172   173    1
   167   172   169    1
   168   181   183    1
   169   181   180    1
   170   180   177    1
   171   170   169    1
   172   170   171    2
   173   169   168    1
   174   177   178    1
   175   177   176    1
   176   178   179    2
