@<TRIPOS>MOLECULE
tmp/3a9hA01.pdb
 173 161 0 0 0
SMALL
GASTEIGER

@<TRIPOS>ATOM
      1  N        -27.2030   -4.6470  -15.4580 N.3    17  TRP17      -0.1241
      2  CA       -26.2340   -3.5490  -15.2850 C.3    17  TRP17       0.1605
      3  C        -26.1790   -2.6730  -16.5160 C.2    17  TRP17       0.2264
      4  O        -26.1340   -1.4530  -16.4240 O.2    17  TRP17      -0.2867
      5  CB       -24.8390   -4.1000  -14.9360 C.3    17  TRP17       0.0550
      6  CG       -24.0830   -3.2670  -13.9000 C.ar   17  TRP17       0.0003
      7  CD1      -24.1220   -3.4210  -12.5360 C.ar   17  TRP17       0.0946
      8  CD2      -23.2040   -2.1620  -14.1510 C.ar   17  TRP17       0.0152
      9  NE1      -23.3270   -2.4790  -11.9220 N.ar   17  TRP17      -0.2442
     10  CE2      -22.7480   -1.6930  -12.8880 C.ar   17  TRP17       0.0810
     11  CE3      -22.7530   -1.5160  -15.3210 C.ar   17  TRP17       0.0012
     12  CZ2      -21.8550   -0.6120  -12.7610 C.ar   17  TRP17       0.0191
     13  CZ3      -21.8670   -0.4360  -15.1960 C.ar   17  TRP17       0.0001
     14  CH2      -21.4360    0.0030  -13.9190 C.ar   17  TRP17       0.0015
     15  N        -25.5020   -8.5550  -13.2560 N.3    32  ARG32      -0.1245
     16  CA       -24.3220   -8.4230  -12.4380 C.3    32  ARG32       0.1563
     17  C        -23.7410   -9.7690  -11.9260 C.2    32  ARG32       0.2260
     18  O        -22.5150   -9.9030  -11.8730 O.2    32  ARG32      -0.2867
     19  CB       -24.5690   -7.4380  -11.3100 C.3    32  ARG32       0.0307
     20  CG       -23.3080   -6.9190  -10.6450 C.3    32  ARG32       0.0489
     21  CD       -23.5610   -6.8880   -9.1820 C.3    32  ARG32       0.2205
     22  NE       -23.8100   -5.5530   -8.6940 N.pl3  32  ARG32      -0.0865
     23  CZ       -24.4640   -5.2590   -7.5710 C.cat  32  ARG32       0.5346
     24  NH1      -25.0030   -6.2010   -6.8180 N.pl3  32  ARG32       0.1354
     25  NH2      -24.5830   -3.9860   -7.2190 N.pl3  32  ARG32       0.1354
     26  N        -20.5590   -4.3040   -4.8850 N.3    57  GLU57      -0.1245
     27  CA       -20.9060   -3.6500   -6.1460 C.3    57  GLU57       0.1567
     28  C        -20.1690   -4.2460   -7.3570 C.2    57  GLU57       0.2260
     29  O        -20.3260   -3.7790   -8.4830 O.2    57  GLU57      -0.2867
     30  CB       -20.6410   -2.1280   -6.0680 C.3    57  GLU57       0.0388
     31  CG       -21.2590   -1.4430   -4.8360 C.3    57  GLU57       0.1160
     32  CD       -20.7000   -0.0450   -4.5760 C.2    57  GLU57       0.3649
     33  OE1      -19.9040    0.4820   -5.3960 O.co2  57  GLU57      -0.2457
     34  OE2      -21.0630    0.5390   -3.5360 O.co2  57  GLU57      -0.2457
     35  N        -16.8410    0.7240   -5.3350 N.3   120  HIS120     -0.1241
     36  CA       -16.0970    1.5930   -6.2610 C.3   120  HIS120      0.1621
     37  C        -15.2970    0.8840   -7.3520 C.2   120  HIS120      0.2264
     38  O        -14.0820    1.0900   -7.4720 O.2   120  HIS120     -0.2867
     39  CB       -15.2120    2.5980   -5.5250 C.3   120  HIS120      0.0745
     40  CG       -15.9230    3.3940   -4.4810 C.ar  120  HIS120      0.0817
     41  ND1      -15.2510    4.1610   -3.5500 N.ar  120  HIS120     -0.2268
     42  CD2      -17.2400    3.5290   -4.1960 C.ar  120  HIS120      0.1154
     43  CE1      -16.1240    4.7480   -2.7500 C.ar  120  HIS120      0.1986
     44  NE2      -17.3390    4.3710   -3.1130 N.ar  120  HIS120     -0.2212
     45  N        -13.9910    9.3700   -8.3280 N.3   182  ARG182     -0.1231
     46  CA       -14.3000    8.5470   -7.1870 C.3   182  ARG182      0.1694
     47  C        -14.9170    7.2400   -7.6430 C.2   182  ARG182      0.2592
     48  O        -14.2910    6.1790   -7.5470 O.2   182  ARG182     -0.2718
     49  CB       -15.2410    9.2960   -6.2680 C.3   182  ARG182      0.0321
     50  CG       -15.5490    8.5770   -4.9820 C.3   182  ARG182      0.0489
     51  CD       -16.2710    9.5000   -4.0530 C.3   182  ARG182      0.2205
     52  NE       -16.6920    8.8120   -2.8300 N.pl3 182  ARG182     -0.0865
     53  CZ       -17.7020    7.9420   -2.7710 C.cat 182  ARG182      0.5346
     54  NH1      -18.3940    7.6320   -3.8660 N.pl3 182  ARG182      0.1354
     55  NH2      -18.0190    7.3830   -1.6210 N.pl3 182  ARG182      0.1354
     56  N        -16.1400    7.3080   -8.1530 N.am  183  ASN183     -0.1974
     57  CA       -16.8100    6.1160   -8.6960 C.3   183  ASN183      0.1688
     58  C        -17.7250    6.4410   -9.8740 C.2   183  ASN183      0.2292
     59  O        -18.9280    6.4930   -9.7240 O.2   183  ASN183     -0.2864
     60  CB       -17.5820    5.3560   -7.6170 C.3   183  ASN183      0.1181
     61  CG       -17.9510    3.9560   -8.0660 C.2   183  ASN183      0.2629
     62  OD1      -17.2510    3.3680   -8.8860 O.2   183  ASN183     -0.2716
     63  ND2      -19.0590    3.4210   -7.5530 N.am  183  ASN183     -0.0877
     64  N        -19.9280    5.8090  -13.0580 N.3   185  GLN185     -0.1245
     65  CA       -20.6770    4.6940  -13.6650 C.3   185  GLN185      0.1566
     66  C        -21.5300    5.1260  -14.8710 C.2   185  GLN185      0.2260
     67  O        -22.4490    4.3970  -15.2830 O.2   185  GLN185     -0.2867
     68  CB       -21.5780    4.0190  -12.6300 C.3   185  GLN185      0.0367
     69  CG       -20.8340    3.2480  -11.5900 C.3   185  GLN185      0.0905
     70  CD       -21.7460    2.5990  -10.5690 C.2   185  GLN185      0.2608
     71  OE1      -22.8620    3.0510  -10.3340 O.2   185  GLN185     -0.2717
     72  NE2      -21.2700    1.5220   -9.9560 N.am  185  GLN185     -0.0878
     73  N        -20.5620    9.0380   -8.3940 N.3   201  HIS201     -0.1226
     74  CA       -20.9910    9.0410   -7.0000 C.3   201  HIS201      0.1752
     75  C        -20.0230    9.8320   -6.1270 C.2   201  HIS201      0.2596
     76  O        -18.7990    9.6130   -6.1870 O.2   201  HIS201     -0.2718
     77  CB       -21.0270    7.6250   -6.4240 C.3   201  HIS201      0.0759
     78  CG       -21.9090    6.6760   -7.1690 C.ar  201  HIS201      0.0818
     79  ND1      -23.2680    6.5960   -6.9460 N.ar  201  HIS201     -0.2268
     80  CD2      -21.6260    5.7370   -8.1050 C.ar  201  HIS201      0.1154
     81  CE1      -23.7870    5.6680   -7.7290 C.ar  201  HIS201      0.1986
     82  NE2      -22.8100    5.1190   -8.4280 N.ar  201  HIS201     -0.2212
     83  N        -20.5640   10.6890   -5.2640 N.am  202  GLY202     -0.1957
     84  CA       -19.7440   11.4760   -4.3550 C.3   202  GLY202      0.1869
     85  C        -19.6990   10.8510   -2.9800 C.2   202  GLY202      0.2309
     86  O        -20.4070    9.8920   -2.7020 O.2   202  GLY202     -0.2863
     87  N        -21.0880   10.3650    0.0400 N.3   204  VAL204     -0.1245
     88  CA       -22.4400   10.6010    0.5970 C.3   204  VAL204      0.1561
     89  C        -23.1780   11.5770   -0.3110 C.2   204  VAL204      0.2260
     90  O        -23.9100   11.1400   -1.2380 O.2   204  VAL204     -0.2867
     91  CB       -22.4270   11.0530    2.0660 C.3   204  VAL204      0.0252
     92  CG1      -23.8130   11.4660    2.5070 C.3   204  VAL204      0.0019
     93  CG2      -21.9430    9.9220    2.9380 C.3   204  VAL204      0.0019
     94  N        -22.7390   14.0580   -5.5230 N.3   207  ASP207     -0.1239
     95  CA       -22.7810   13.3570   -6.7980 C.3   207  ASP207      0.1674
     96  C        -22.5630   14.3760   -7.8960 C.2   207  ASP207      0.2266
     97  O        -22.8560   15.5490   -7.7220 O.2   207  ASP207     -0.2867
     98  CB       -24.0950   12.6080   -6.9490 C.3   207  ASP207      0.1410
     99  CG       -24.2890   11.5570   -5.8430 C.2   207  ASP207      0.3668
    100  OD1      -23.2990   10.8650   -5.4980 O.co2 207  ASP207     -0.2456
    101  OD2      -25.4200   11.4120   -5.3040 O.co2 207  ASP207     -0.2456
    102  N        -28.3570   13.1900   -2.1120 N.3   243  THR243     -0.1218
    103  CA       -27.8300   11.9880   -2.7750 C.3   243  THR243      0.1862
    104  C        -28.7000   11.4880   -3.9480 C.2   243  THR243      0.2287
    105  O        -29.8240   11.0400   -3.7510 O.2   243  THR243     -0.2866
    106  CB       -27.6610   10.8370   -1.7540 C.3   243  THR243      0.1770
    107  OG1      -26.9350   11.3190   -0.6260 O.3   243  THR243     -0.2211
    108  CG2      -26.9230    9.6370   -2.3740 C.3   243  THR243      0.0375
    109  N        -27.0560    9.1590   -6.2790 N.3   245  ALA245     -0.1245
    110  CA       -26.4070    7.9180   -6.6720 C.3   245  ALA245      0.1562
    111  C        -26.6320    7.6480   -8.1460 C.2   245  ALA245      0.2260
    112  O        -27.2710    6.6760   -8.5050 O.2   245  ALA245     -0.2867
    113  CB       -26.8640    6.7350   -5.8150 C.3   245  ALA245      0.0290
    114  N        -29.6820    5.4790   -8.4520 N.3   269  LEU269     -0.1231
    115  CA       -29.8640    4.3170   -7.6020 C.3   269  LEU269      0.1693
    116  C        -30.6200    4.6890   -6.3310 C.2   269  LEU269      0.2591
    117  O        -31.8300    4.5510   -6.2800 O.2   269  LEU269     -0.2718
    118  CB       -28.5290    3.6180   -7.3230 C.3   269  LEU269      0.0284
    119  CG       -27.9220    3.0320   -8.6150 C.3   269  LEU269      0.0019
    120  CD1      -26.4370    2.8770   -8.5350 C.3   269  LEU269      0.0001
    121  CD2      -28.5860    1.7110   -8.9860 C.3   269  LEU269      0.0001
    122  N        -29.9380    5.1850   -5.3110 N.am  270  ARG270     -0.1980
    123  CA       -30.6450    5.5600   -4.1050 C.3   270  ARG270      0.1597
    124  C        -31.6510    6.6780   -4.4070 C.2   270  ARG270      0.2287
    125  O        -32.7140    6.7050   -3.8290 O.2   270  ARG270     -0.2864
    126  CB       -29.6860    5.9890   -3.0080 C.3   270  ARG270      0.0334
    127  CG       -30.3500    6.0340   -1.6630 C.3   270  ARG270      0.0492
    128  CD       -29.7040    7.0410   -0.7640 C.3   270  ARG270      0.2205
    129  NE       -29.3070    6.4010    0.4820 N.pl3 270  ARG270     -0.0865
    130  CZ       -29.8150    6.6580    1.6800 C.cat 270  ARG270      0.5346
    131  NH1      -30.7460    7.5920    1.8420 N.pl3 270  ARG270      0.1354
    132  NH2      -29.3530    5.9910    2.7300 N.pl3 270  ARG270      0.1354
    133  N        -34.8440    1.5270   -7.4250 N.3   298  ARG298     -0.1245
    134  CA       -33.4920    1.9170   -7.8340 C.3   298  ARG298      0.1563
    135  C        -33.3190    1.7970   -9.3540 C.2   298  ARG298      0.2260
    136  O        -33.6950    0.7910   -9.9380 O.2   298  ARG298     -0.2867
    137  CB       -32.4970    1.0600   -7.0650 C.3   298  ARG298      0.0307
    138  CG       -32.7130    1.1380   -5.5250 C.3   298  ARG298      0.0489
    139  CD       -31.8990    0.0850   -4.7360 C.3   298  ARG298      0.2205
    140  NE       -30.5480   -0.0650   -5.2870 N.pl3 298  ARG298     -0.0865
    141  CZ       -29.5200    0.7380   -5.0080 C.cat 298  ARG298      0.5346
    142  NH1      -29.6550    1.7230   -4.1210 N.pl3 298  ARG298      0.1354
    143  NH2      -28.3510    0.5390   -5.6070 N.pl3 298  ARG298      0.1354
    144  N        -30.6490    2.0900  -12.8040 N.3   300  ARG300     -0.1245
    145  CA       -29.2390    1.8360  -13.0180 C.3   300  ARG300      0.1563
    146  C        -28.7090    2.2870  -14.3710 C.2   300  ARG300      0.2260
    147  O        -27.7220    3.0520  -14.4270 O.2   300  ARG300     -0.2867
    148  CB       -28.8760    0.3670  -12.7710 C.3   300  ARG300      0.0307
    149  CG       -27.3700    0.1260  -12.8860 C.3   300  ARG300      0.0489
    150  CD       -26.9230   -1.2220  -12.3490 C.3   300  ARG300      0.2205
    151  NE       -27.0080   -1.4070  -10.8880 N.pl3 300  ARG300     -0.0865
    152  CZ       -26.1010   -0.9790  -10.0000 C.cat 300  ARG300      0.5346
    153  NH1      -25.0460   -0.2620  -10.3920 N.pl3 300  ARG300      0.1354
    154  NH2      -26.2690   -1.2430   -8.7050 N.pl3 300  ARG300      0.1354
    155  N        -30.1820   -5.8070   -6.0280 N.3   318  ASP318     -0.1239
    156  CA       -28.9070   -5.7500   -5.3290 C.3   318  ASP318      0.1674
    157  C        -29.1460   -5.7170   -3.8250 C.2   318  ASP318      0.2266
    158  O        -28.2160   -5.7510   -3.0200 O.2   318  ASP318     -0.2867
    159  CB       -28.0550   -4.5760   -5.8100 C.3   318  ASP318      0.1410
    160  CG       -28.7470   -3.2220   -5.6690 C.2   318  ASP318      0.3668
    161  OD1      -29.6050   -3.0390   -4.7840 O.co2 318  ASP318     -0.2456
    162  OD2      -28.3970   -2.3230   -6.4580 O.co2 318  ASP318     -0.2456
    163  N        -30.2810   -3.2200   -2.0000 N.3   320  ARG320     -0.1245
    164  CA       -30.0650   -1.9640   -1.3010 C.3   320  ARG320      0.1563
    165  C        -31.4040   -1.2620   -1.4110 C.2   320  ARG320      0.2260
    166  O        -31.5990   -0.1330   -0.9460 O.2   320  ARG320     -0.2867
    167  CB       -28.9040   -1.1340   -1.8940 C.3   320  ARG320      0.0307
    168  CG       -27.5890   -1.9130   -1.9770 C.3   320  ARG320      0.0489
    169  CD       -26.3840   -1.1930   -1.3870 C.3   320  ARG320      0.2205
    170  NE       -25.6620   -0.4130   -2.3830 N.pl3 320  ARG320     -0.0865
    171  CZ       -24.3430   -0.3950   -2.5620 C.cat 320  ARG320      0.5346
    172  NH1      -23.5150   -1.1190   -1.8250 N.pl3 320  ARG320      0.1354
    173  NH2      -23.8450    0.3790   -3.5060 N.pl3 320  ARG320      0.1354
@<TRIPOS>BOND
     1     3     4    2
     2     3     2    1
     3     1     2    1
     4    11    13   ar
     5    11     8   ar
     6     2     5    1
     7    67    66    2
     8    13    14   ar
     9     5     6    1
    10    66    65    1
    11   147   146    2
    12   146   145    1
    13     8     6   ar
    14     8    10   ar
    15    14    12   ar
    16     6     7   ar
    17    65    64    1
    18    65    68    1
    19    15    16    1
    20   145   144    1
    21   145   148    1
    22    10    12   ar
    23    10     9   ar
    24   149   148    1
    25   149   150    1
    26    68    69    1
    27     7     9   ar
    28    16    17    1
    29    16    19    1
    30   150   151    1
    31    17    18    2
    32    69    70    1
    33    19    20    1
    34   151   152    2
    35    20    21    1
    36    70    71    2
    37    70    72   am
    38   153   152    1
    39   152   154    1
    40   136   135    2
    41    58    59    2
    42    58    57    1
    43   135   134    1
    44    21    22    1
    45   121   119    1
    46    62    61    2
    47    57    56    1
    48    57    60    1
    49    22    23    2
    50   119   120    1
    51   119   118    1
    52   112   111    2
    53    29    28    2
    54   114   115    1
    55    82    80   ar
    56    82    81   ar
    57    73    74    1
    58    45    46    1
    59    56    47   am
    60   111   110    1
    61    80    78   ar
    62    61    60    1
    63    61    63   am
    64    96    97    2
    65    96    95    1
    66   134   133    1
    67   134   137    1
    68    81    79   ar
    69    47    48    2
    70    47    46    1
    71   115   118    1
    72   115   116    1
    73    23    25    1
    74    23    24    1
    75    38    37    2
    76    28    27    1
    77    37    36    1
    78    46    49    1
    79    78    79   ar
    80    78    77    1
    81   137   138    1
    82    74    77    1
    83    74    75    1
    84    98    95    1
    85    98    99    1
    86    95    94    1
    87   110   109    1
    88   110   113    1
    89   162   160   ar
    90   116   117    2
    91   116   122   am
    92    49    50    1
    93    36    39    1
    94    36    35    1
    95    76    75    2
    96    27    30    1
    97    27    26    1
    98    75    83   am
    99    30    31    1
   100   155   156    1
   101    99   100   ar
   102    99   101   ar
   103   159   160    1
   104   159   156    1
   105   160   161   ar
   106   143   141    1
   107    39    40    1
   108   138   139    1
   109    33    32   ar
   110   156   157    1
   111   122   123    1
   112   140   141    2
   113   140   139    1
   114    83    84    1
   115   141   142    1
   116    50    51    1
   117    31    32    1
   118    32    34   ar
   119    40    42   ar
   120    40    41   ar
   121   124   123    1
   122   124   125    2
   123    84    85    1
   124    42    44   ar
   125   123   126    1
   126    51    52    1
   127   104   105    2
   128   104   103    1
   129    54    53    1
   130   157   158    2
   131    41    43   ar
   132   173   171    1
   133    44    43   ar
   134   126   127    1
   135    85    86    2
   136    52    53    2
   137   103   102    1
   138   103   106    1
   139    53    55    1
   140   171   170    2
   141   171   172    1
   142   170   169    1
   143   108   106    1
   144   163   164    1
   145   168   167    1
   146   168   169    1
   147   167   164    1
   148   106   107    1
   149   127   128    1
   150   165   164    1
   151   165   166    2
   152    90    89    2
   153   128   129    1
   154    89    88    1
   155    87    88    1
   156   129   130    2
   157    88    91    1
   158   130   131    1
   159   130   132    1
   160    91    92    1
   161    91    93    1
