@<TRIPOS>MOLECULE
tmp/3a9iA00.pdb
 150 137 0 0 0
SMALL
GASTEIGER

@<TRIPOS>ATOM
      1  N         18.8940   18.4450    8.0710 N.3    11  ARG11      -0.1231
      2  CA        19.6940   19.2450    7.1320 C.3    11  ARG11       0.1694
      3  C         19.5880   18.4830    5.8080 C.2    11  ARG11       0.2591
      4  O         18.7180   18.8050    4.9850 O.2    11  ARG11      -0.2718
      5  CB        21.1400   19.3920    7.6540 C.3    11  ARG11       0.0321
      6  CG        22.0690   20.3270    6.8140 C.3    11  ARG11       0.0489
      7  CD        22.9000   19.5420    5.7770 C.3    11  ARG11       0.2205
      8  NE        24.2260   20.1680    5.6010 N.pl3  11  ARG11      -0.0865
      9  CZ        24.6410   20.7780    4.4890 C.cat  11  ARG11       0.5346
     10  NH1       23.8720   20.8360    3.4010 N.pl3  11  ARG11       0.1354
     11  NH2       25.8620   21.2970    4.4460 N.pl3  11  ARG11       0.1354
     12  N         20.3990   17.4410    5.6150 N.am   12  GLU12      -0.1979
     13  CA        20.2460   16.5810    4.4280 C.3    12  GLU12       0.1602
     14  C         18.8220   16.0570    4.2440 C.2    12  GLU12       0.2287
     15  O         18.3090   16.0410    3.1170 O.2    12  GLU12      -0.2864
     16  CB        21.2220   15.3960    4.4470 C.3    12  GLU12       0.0415
     17  CG        21.0860   14.4740    3.2330 C.3    12  GLU12       0.1163
     18  CD        21.7100   15.0980    2.0210 C.2    12  GLU12       0.3649
     19  OE1       22.8940   15.4740    2.1850 O.co2  12  GLU12      -0.2457
     20  OE2       21.0500   15.2200    0.9530 O.co2  12  GLU12      -0.2457
     21  N         16.2180   17.9220    2.1520 N.3    15  GLN15      -0.1245
     22  CA        16.3540   17.8400    0.6960 C.3    15  GLN15       0.1566
     23  C         15.6020   16.6500    0.0970 C.2    15  GLN15       0.2260
     24  O         15.4670   16.5550   -1.1250 O.2    15  GLN15      -0.2867
     25  CB        17.8310   17.6960    0.3270 C.3    15  GLN15       0.0367
     26  CG        18.6940   18.8760    0.7680 C.3    15  GLN15       0.0905
     27  CD        18.3580   20.1500    0.0100 C.2    15  GLN15       0.2608
     28  OE1       18.1420   20.1350   -1.2200 O.2    15  GLN15      -0.2717
     29  NE2       18.3040   21.2590    0.7300 N.am   15  GLN15      -0.0878
     30  N         22.8680   18.1100   12.9210 N.3    42  GLU42      -0.1245
     31  CA        23.0680   19.2230   12.0170 C.3    42  GLU42       0.1567
     32  C         21.7320   19.6870   11.4460 C.2    42  GLU42       0.2260
     33  O         20.8760   18.8760   11.1000 O.2    42  GLU42      -0.2867
     34  CB        24.0650   18.9120   10.8960 C.3    42  GLU42       0.0388
     35  CG        24.4080   20.1630   10.0650 C.3    42  GLU42       0.1160
     36  CD        25.5910   20.0040    9.1010 C.2    42  GLU42       0.3649
     37  OE1       25.4470   19.2880    8.0920 O.co2  42  GLU42      -0.2457
     38  OE2       26.6430   20.6500    9.3180 O.co2  42  GLU42      -0.2457
     39  N         29.8950   24.8640   10.2840 N.3    91  ASP91      -0.1239
     40  CA        30.7130   24.3010    9.2260 C.3    91  ASP91       0.1674
     41  C         30.7580   25.3270    8.0990 C.2    91  ASP91       0.2266
     42  O         29.7090   25.8230    7.6590 O.2    91  ASP91      -0.2867
     43  CB        30.0740   22.9860    8.7450 C.3    91  ASP91       0.1410
     44  CG        30.8910   22.2750    7.6760 C.2    91  ASP91       0.3668
     45  OD1       32.1120   22.5230    7.5930 O.co2  91  ASP91      -0.2456
     46  OD2       30.3050   21.4390    6.9360 O.co2  91  ASP91      -0.2456
     47  N         31.6570   26.0170    4.2270 N.3    93  LEU93      -0.1245
     48  CA        31.8100   25.2680    2.9990 C.3    93  LEU93       0.1561
     49  C         32.7000   25.9940    2.0080 C.2    93  LEU93       0.2260
     50  O         32.6260   27.2130    1.8710 O.2    93  LEU93      -0.2867
     51  CB        30.4400   25.0120    2.3390 C.3    93  LEU93       0.0270
     52  CG        29.4870   24.0030    2.9870 C.3    93  LEU93       0.0019
     53  CD1       28.1640   24.0820    2.2710 C.3    93  LEU93       0.0001
     54  CD2       30.0420   22.5880    2.8560 C.3    93  LEU93       0.0001
     55  N         34.1550   24.1810   11.7300 N.3   126  ARG126     -0.1245
     56  CA        34.4290   23.0750   10.7990 C.3   126  ARG126      0.1563
     57  C         34.5950   23.6670    9.4180 C.2   126  ARG126      0.2260
     58  O         34.0670   24.7450    9.1340 O.2   126  ARG126     -0.2867
     59  CB        33.2730   22.0650   10.7970 C.3   126  ARG126      0.0307
     60  CG        32.8650   21.5820   12.1820 C.3   126  ARG126      0.0489
     61  CD        31.3340   21.4940   12.2770 C.3   126  ARG126      0.2205
     62  NE        30.8010   20.4730   11.3780 N.pl3 126  ARG126     -0.0865
     63  CZ        29.5360   20.4040   10.9520 C.cat 126  ARG126      0.5346
     64  NH1       29.1830   19.4260   10.1330 N.pl3 126  ARG126      0.1354
     65  NH2       28.6400   21.3260   11.2970 N.pl3 126  ARG126      0.1354
     66  N         34.6340   22.4520    5.2580 N.3   128  SER128     -0.1217
     67  CA        34.3610   21.2780    4.4100 C.3   128  SER128      0.1889
     68  C         34.2490   21.5620    2.9320 C.2   128  SER128      0.2288
     69  O         33.7660   22.6310    2.5270 O.2   128  SER128     -0.2866
     70  CB        33.0860   20.5580    4.8590 C.3   128  SER128      0.2089
     71  OG        33.0960   20.2980    6.2360 O.3   128  SER128     -0.2183
     72  N         32.6420   20.9100   -0.6460 N.3   130  GLU130     -0.1245
     73  CA        31.5560   20.3960   -1.4680 C.3   130  GLU130      0.1567
     74  C         32.1330   19.6310   -2.6660 C.2   130  GLU130      0.2260
     75  O         33.1350   20.0610   -3.2540 O.2   130  GLU130     -0.2867
     76  CB        30.6390   21.5340   -1.9220 C.3   130  GLU130      0.0388
     77  CG        29.4550   21.0530   -2.8050 C.3   130  GLU130      0.1160
     78  CD        28.4810   22.1770   -3.1330 C.2   130  GLU130      0.3649
     79  OE1       27.9940   22.8380   -2.1730 O.co2 130  GLU130     -0.2457
     80  OE2       28.2060   22.4100   -4.3330 O.co2 130  GLU130     -0.2457
     81  N         36.0870   18.6900    6.7180 N.3   155  GLY155     -0.1210
     82  CA        35.0940   17.7440    6.2000 C.3   155  GLY155      0.1956
     83  C         35.3060   17.4170    4.7380 C.2   155  GLY155      0.2612
     84  O         35.6360   18.2930    3.9310 O.2   155  GLY155     -0.2717
     85  N         35.0920   16.1420    4.4100 N.am  156  LEU156     -0.1965
     86  CA        35.0550   15.6650    3.0260 C.3   156  LEU156      0.1728
     87  C         33.6110   15.3010    2.7350 C.2   156  LEU156      0.2616
     88  O         32.9760   14.6490    3.5610 O.2   156  LEU156     -0.2715
     89  CB        35.8950   14.3990    2.8940 C.3   156  LEU156      0.0311
     90  CG        37.4220   14.5140    2.9620 C.3   156  LEU156      0.0022
     91  CD1       37.8840   14.9330    4.3520 C.3   156  LEU156      0.0001
     92  CD2       38.0270   13.1610    2.6180 C.3   156  LEU156      0.0001
     93  N         33.0920   15.7580    1.6000 N.am  157  ALA157     -0.1977
     94  CA        31.7090   15.5060    1.2070 C.3   157  ALA157      0.1597
     95  C         31.6120   14.9760   -0.2130 C.2   157  ALA157      0.2287
     96  O         31.9590   15.6810   -1.1720 O.2   157  ALA157     -0.2864
     97  CB        30.8440   16.7790    1.3640 C.3   157  ALA157      0.0319
     98  N         29.3400   14.7620   -2.4720 N.3   159  THR159     -0.1218
     99  CA        28.0670   15.4090   -2.7770 C.3   159  THR159      0.1862
    100  C         27.3020   14.7130   -3.9130 C.2   159  THR159      0.2287
    101  O         26.0650   14.6310   -3.9100 O.2   159  THR159     -0.2866
    102  CB        28.3440   16.8880   -3.1480 C.3   159  THR159      0.1770
    103  OG1       29.0680   17.5220   -2.0730 O.3   159  THR159     -0.2211
    104  CG2       27.0330   17.6450   -3.3950 C.3   159  THR159      0.0375
    105  N         35.5730   14.8940    9.3110 N.3   186  GLU186     -0.1245
    106  CA        34.2140   14.3980    9.1100 C.3   186  GLU186      0.1567
    107  C         34.0050   13.9380    7.6750 C.2   186  GLU186      0.2260
    108  O         34.6200   14.4800    6.7570 O.2   186  GLU186     -0.2867
    109  CB        33.1230   15.4260    9.4820 C.3   186  GLU186      0.0388
    110  CG        33.4820   16.8800    9.4750 C.3   186  GLU186      0.1160
    111  CD        32.3050   17.7490    9.9730 C.2   186  GLU186      0.3649
    112  OE1       32.3900   18.2890   11.0930 O.co2 186  GLU186     -0.2457
    113  OE2       31.3040   17.8720    9.2400 O.co2 186  GLU186     -0.2457
    114  N         30.8770   12.9620    4.7840 N.3   188  HIS188     -0.1241
    115  CA        29.4910   13.0310    4.3220 C.3   188  HIS188      0.1621
    116  C         29.3970   12.3280    2.9680 C.2   188  HIS188      0.2264
    117  O         29.9710   12.7820    2.0610 O.2   188  HIS188     -0.2867
    118  CB        29.0530   14.4910    4.1770 C.3   188  HIS188      0.0745
    119  CG        27.6650   14.6840    3.6470 C.ar  188  HIS188      0.0817
    120  ND1       26.5800   14.8650    4.4560 N.ar  188  HIS188     -0.2268
    121  CD2       27.2090   14.7910    2.3850 C.ar  188  HIS188      0.1154
    122  CE1       25.5110   15.0400    3.7070 C.ar  188  HIS188      0.1986
    123  NE2       25.8670   14.9700    2.4520 N.ar  188  HIS188     -0.2212
    124  N         27.0610   10.5430   -0.1750 N.3   190  HIS190     -0.1241
    125  CA        25.8390   10.1740   -0.9020 C.3   190  HIS190      0.1621
    126  C         25.8840    8.7490   -1.4390 C.2   190  HIS190      0.2264
    127  O         26.9670    8.1740   -1.6110 O.2   190  HIS190     -0.2867
    128  CB        25.5320   11.2150   -2.0040 C.3   190  HIS190      0.0745
    129  CG        24.8560   12.4380   -1.4670 C.ar  190  HIS190      0.0817
    130  ND1       23.4990   12.6430   -1.5880 N.ar  190  HIS190     -0.2268
    131  CD2       25.3320   13.4700   -0.7210 C.ar  190  HIS190      0.1154
    132  CE1       23.1680   13.7640   -0.9750 C.ar  190  HIS190      0.1986
    133  NE2       24.2660   14.2880   -0.4400 N.ar  190  HIS190     -0.2212
    134  N         28.3280   11.5800    8.8070 N.3   212  ASP212     -0.1239
    135  CA        26.9490   12.0530    8.6800 C.3   212  ASP212      0.1674
    136  C         26.0300   10.8900    8.3420 C.2   212  ASP212      0.2266
    137  O         26.3140   10.0930    7.4260 O.2   212  ASP212     -0.2867
    138  CB        26.8050   13.0580    7.5400 C.3   212  ASP212      0.1410
    139  CG        27.4810   14.3880    7.8080 C.2   212  ASP212      0.3668
    140  OD1       28.3160   14.4850    8.7390 O.co2 212  ASP212     -0.2456
    141  OD2       27.1810   15.3520    7.0630 O.co2 212  ASP212     -0.2456
    142  N         18.6460   14.2220   -0.4290 N.3   220  GLU220     -0.1245
    143  CA        18.6060   14.4910   -1.8680 C.3   220  GLU220      0.1567
    144  C         18.7910   13.1740   -2.6440 C.2   220  GLU220      0.2260
    145  O         19.6030   12.3230   -2.2690 O.2   220  GLU220     -0.2867
    146  CB        19.7310   15.4750   -2.2230 C.3   220  GLU220      0.0388
    147  CG        19.5380   16.1300   -3.5570 C.3   220  GLU220      0.1160
    148  CD        20.5450   17.2150   -3.8380 C.2   220  GLU220      0.3649
    149  OE1       21.6270   17.2150   -3.2190 O.co2 220  GLU220     -0.2457
    150  OE2       20.2570   18.0500   -4.6960 O.co2 220  GLU220     -0.2457
@<TRIPOS>BOND
     1   150   148   ar
     2    80    78   ar
     3   100   101    2
     4   100    99    1
     5   148   147    1
     6   148   149   ar
     7   147   146    1
     8   104   102    1
     9    75    74    2
    10   102    99    1
    11   102   103    1
    12    78    77    1
    13    78    79   ar
    14    77    76    1
    15    99    98    1
    16    74    73    1
    17   144   145    2
    18   144   143    1
    19   146   143    1
    20   128   129    1
    21   128   125    1
    22    76    73    1
    23   143   142    1
    24   127   126    2
    25   130   129   ar
    26   130   132   ar
    27    73    72    1
    28   129   131   ar
    29   126   125    1
    30    28    27    2
    31    96    95    2
    32    24    23    2
    33   132   133   ar
    34   125   124    1
    35   131   133   ar
    36    95    94    1
    37    27    29   am
    38    27    26    1
    39    23    22    1
    40    25    22    1
    41    25    26    1
    42    22    21    1
    43    20    18   ar
    44    94    97    1
    45    94    93    1
    46    93    87   am
    47    50    49    2
    48    49    48    1
    49    18    19   ar
    50    18    17    1
    51   117   116    2
    52    53    52    1
    53    51    52    1
    54    51    48    1
    55   121   123   ar
    56   121   119   ar
    57   123   122   ar
    58    69    68    2
    59    92    90    1
    60    87    86    1
    61    87    88    2
    62    54    52    1
    63    89    90    1
    64    89    86    1
    65    68    67    1
    66    90    91    1
    67   116   115    1
    68    48    47    1
    69    86    85    1
    70    15    14    2
    71    17    16    1
    72    10     9    1
    73   119   118    1
    74   119   120   ar
    75   122   120   ar
    76    84    83    2
    77   118   115    1
    78    14    13    1
    79   115   114    1
    80    85    83   am
    81    67    70    1
    82    67    66    1
    83    13    16    1
    84    13    12    1
    85    11     9    1
    86     9     8    2
    87    83    82    1
    88    70    71    1
    89     4     3    2
    90     8     7    1
    91    12     3   am
    92     7     6    1
    93     3     2    1
    94    82    81    1
    95   108   107    2
    96     6     5    1
    97    46    44   ar
    98   141   139   ar
    99     2     5    1
   100     2     1    1
   101   137   136    2
   102   138   139    1
   103   138   135    1
   104    45    44   ar
   105    42    41    2
   106   107   106    1
   107    44    43    1
   108   139   140   ar
   109    37    36   ar
   110    41    40    1
   111   136   135    1
   112   135   134    1
   113    43    40    1
   114    36    38   ar
   115    36    35    1
   116   106   105    1
   117   106   109    1
   118    58    57    2
   119    40    39    1
   120   113   111   ar
   121    57    56    1
   122   110   109    1
   123   110   111    1
   124   111   112   ar
   125    35    34    1
   126    64    63    1
   127    59    56    1
   128    59    60    1
   129    56    55    1
   130    34    31    1
   131    63    65    1
   132    63    62    2
   133    33    32    2
   134    62    61    1
   135    32    31    1
   136    31    30    1
   137    60    61    1
