@<TRIPOS>MOLECULE
tmp/3a9rC01.pdb
 103 99 0 0 0
SMALL
GASTEIGER

@<TRIPOS>ATOM
      1  N        -28.7330   18.3920   28.0690 N.3   189  MET189     -0.1245
      2  CA       -28.8460   19.0940   26.7940 C.3   189  MET189      0.1570
      3  C        -27.7330   18.8090   25.7840 C.2   189  MET189      0.2261
      4  O        -27.1920   19.7270   25.1680 O.2   189  MET189     -0.2867
      5  CB       -28.9330   20.5980   27.0580 C.3   189  MET189      0.0387
      6  CG       -30.0970   20.9770   27.9700 C.3   189  MET189      0.0595
      7  SD       -30.1590   22.7340   28.3060 S.3   189  MET189     -0.1393
      8  CE       -28.7330   22.9360   29.3490 C.3   189  MET189      0.0692
      9  N        -24.6480   18.0960   26.0750 N.3   191  ILE191     -0.1245
     10  CA       -23.3120   18.6110   26.3530 C.3   191  ILE191      0.1561
     11  C        -22.3370   17.4350   26.4530 C.2   191  ILE191      0.2260
     12  O        -22.4810   16.5550   27.3060 O.2   191  ILE191     -0.2867
     13  CB       -23.3010   19.4400   27.6560 C.3   191  ILE191      0.0252
     14  CG1      -24.1900   20.6770   27.4720 C.3   191  ILE191      0.0019
     15  CG2      -21.8760   19.8450   28.0130 C.3   191  ILE191      0.0019
     16  CD1      -24.3990   21.4950   28.7300 C.3   191  ILE191      0.0001
     17  N        -31.1470   20.5980   33.8360 N.3   306  GLN306     -0.1245
     18  CA       -31.9190   20.6950   32.5940 C.3   306  GLN306      0.1566
     19  C        -31.6460   19.3910   31.8310 C.2   306  GLN306      0.2260
     20  O        -30.5490   18.8310   31.9360 O.2   306  GLN306     -0.2867
     21  CB       -31.4800   21.9150   31.7500 C.3   306  GLN306      0.0367
     22  CG       -31.3840   23.2400   32.5260 C.3   306  GLN306      0.0905
     23  CD       -30.9710   24.4290   31.6520 C.2   306  GLN306      0.2608
     24  OE1      -31.6330   24.7510   30.6690 O.2   306  GLN306     -0.2717
     25  NE2      -29.8720   25.0820   32.0170 N.am  306  GLN306     -0.0878
     26  N        -24.9280   21.2400   35.2460 N.3   341  GLU341     -0.1245
     27  CA       -25.2710   20.4440   34.0690 C.3   341  GLU341      0.1567
     28  C        -24.5160   19.1230   33.9640 C.2   341  GLU341      0.2260
     29  O        -24.3060   18.5970   32.8690 O.2   341  GLU341     -0.2867
     30  CB       -25.0740   21.2890   32.8060 C.3   341  GLU341      0.0388
     31  CG       -25.9140   22.5640   32.8520 C.3   341  GLU341      0.1160
     32  CD       -25.6370   23.5280   31.7200 C.2   341  GLU341      0.3649
     33  OE1      -24.4600   23.6950   31.3380 O.co2 341  GLU341     -0.2457
     34  OE2      -26.6050   24.1430   31.2250 O.co2 341  GLU341     -0.2457
     35  N        -19.6510   29.8270   31.9570 N.3   365  ASP365     -0.1239
     36  CA       -19.8880   29.6580   30.5290 C.3   365  ASP365      0.1674
     37  C        -18.9610   30.6840   29.8920 C.2   365  ASP365      0.2266
     38  O        -18.8230   31.7940   30.4140 O.2   365  ASP365     -0.2867
     39  CB       -21.3220   30.0550   30.1360 C.3   365  ASP365      0.1410
     40  CG       -22.3620   29.0130   30.4980 C.2   365  ASP365      0.3668
     41  OD1      -23.5540   29.2500   30.2000 O.co2 365  ASP365     -0.2456
     42  OD2      -22.0080   27.9670   31.0740 O.co2 365  ASP365     -0.2456
     43  N        -24.6970   29.6520   33.9540 N.3   397  SER397     -0.1217
     44  CA       -26.1480   29.6990   33.8130 C.3   397  SER397      0.1889
     45  C        -26.9420   29.8360   35.1150 C.2   397  SER397      0.2288
     46  O        -28.0060   29.2270   35.2660 O.2   397  SER397     -0.2866
     47  CB       -26.6300   28.4640   33.0420 C.3   397  SER397      0.2089
     48  OG       -26.1750   27.2700   33.6570 O.3   397  SER397     -0.2183
     49  N        -36.8750   29.1330   30.8630 N.3   443  TYR443     -0.1227
     50  CA       -35.7750   28.1760   30.8090 C.3   443  TYR443      0.1736
     51  C        -35.9540   27.1620   31.9400 C.2   443  TYR443      0.2595
     52  O        -35.8180   25.9540   31.7360 O.2   443  TYR443     -0.2718
     53  CB       -34.4150   28.8640   31.0030 C.3   443  TYR443      0.0548
     54  CG       -33.8070   29.5610   29.8000 C.ar  443  TYR443     -0.0200
     55  CD1      -33.9050   29.0200   28.5160 C.ar  443  TYR443     -0.0009
     56  CD2      -33.0490   30.7270   29.9660 C.ar  443  TYR443     -0.0009
     57  CE1      -33.2620   29.6210   27.4290 C.ar  443  TYR443      0.0417
     58  CE2      -32.4000   31.3320   28.8880 C.ar  443  TYR443      0.0417
     59  CZ       -32.5090   30.7750   27.6230 C.ar  443  TYR443      0.1957
     60  OH       -31.8510   31.3670   26.5650 O.3   443  TYR443     -0.2866
     61  N        -36.2620   27.6750   33.1300 N.am  444  PHE444     -0.1976
     62  CA       -36.4370   26.8560   34.3300 C.3   444  PHE444      0.1639
     63  C        -37.8750   26.9350   34.8280 C.2   444  PHE444      0.2290
     64  O        -38.1930   27.6830   35.7550 O.2   444  PHE444     -0.2864
     65  CB       -35.4740   27.3500   35.4070 C.3   444  PHE444      0.0560
     66  CG       -34.0730   27.5490   34.9060 C.ar  444  PHE444     -0.0200
     67  CD1      -33.2480   26.4560   34.6530 C.ar  444  PHE444     -0.0042
     68  CD2      -33.5930   28.8270   34.6370 C.ar  444  PHE444     -0.0042
     69  CE1      -31.9640   26.6320   34.1370 C.ar  444  PHE444     -0.0003
     70  CE2      -32.3090   29.0160   34.1190 C.ar  444  PHE444     -0.0003
     71  CZ       -31.4950   27.9160   33.8690 C.ar  444  PHE444     -0.0000
     72  N        -27.6450   36.3830   36.2080 N.3   502  TRP502     -0.1241
     73  CA       -26.5630   35.4160   36.3910 C.3   502  TRP502      0.1605
     74  C        -25.2790   36.1180   36.8620 C.2   502  TRP502      0.2264
     75  O        -25.1680   37.3420   36.7840 O.2   502  TRP502     -0.2867
     76  CB       -26.3180   34.6550   35.0850 C.3   502  TRP502      0.0550
     77  CG       -27.4840   33.8090   34.6460 C.ar  502  TRP502      0.0003
     78  CD1      -28.6450   33.5810   35.3370 C.ar  502  TRP502      0.0946
     79  CD2      -27.5920   33.0600   33.4280 C.ar  502  TRP502      0.0152
     80  NE1      -29.4630   32.7370   34.6230 N.ar  502  TRP502     -0.2442
     81  CE2      -28.8410   32.4020   33.4490 C.ar  502  TRP502      0.0810
     82  CE3      -26.7520   32.8790   32.3220 C.ar  502  TRP502      0.0012
     83  CZ2      -29.2720   31.5740   32.4040 C.ar  502  TRP502      0.0191
     84  CZ3      -27.1790   32.0580   31.2850 C.ar  502  TRP502      0.0001
     85  CH2      -28.4300   31.4160   31.3340 C.ar  502  TRP502      0.0015
     86  N        -17.9400   25.0440   25.8900 N.3   530  ASN530     -0.1225
     87  CA       -18.6600   26.2560   26.2720 C.3   530  ASN530      0.1785
     88  C        -18.4300   26.6210   27.7380 C.2   530  ASN530      0.2597
     89  O        -18.8090   27.7070   28.1840 O.2   530  ASN530     -0.2718
     90  CB       -20.1630   26.0860   26.0180 C.3   530  ASN530      0.1169
     91  CG       -20.7610   24.9250   26.7920 C.2   530  ASN530      0.2627
     92  OD1      -21.8160   25.0580   27.4160 O.2   530  ASN530     -0.2716
     93  ND2      -20.0990   23.7790   26.7470 N.am  530  ASN530     -0.0877
     94  N        -17.7980   25.7180   28.4790 N.am  531  HIS531     -0.1975
     95  CA       -17.5390   25.9360   29.9000 C.3   531  HIS531      0.1656
     96  C        -16.0630   26.0300   30.2350 C.2   531  HIS531      0.2291
     97  O        -15.2080   25.5960   29.4680 O.2   531  HIS531     -0.2864
     98  CB       -18.1150   24.7820   30.7220 C.3   531  HIS531      0.0771
     99  CG       -19.6070   24.7070   30.7130 C.ar  531  HIS531      0.0820
    100  ND1      -20.3180   23.5560   30.9700 N.ar  531  HIS531     -0.2267
    101  CD2      -20.5350   25.6760   30.5110 C.ar  531  HIS531      0.1154
    102  CE1      -21.6240   23.8550   30.9160 C.ar  531  HIS531      0.1986
    103  NE2      -21.8050   25.1310   30.6410 N.ar  531  HIS531     -0.2212
@<TRIPOS>BOND
     1     4     3    2
     2     3     2    1
     3    86    87    1
     4    90    87    1
     5    90    91    1
     6     9    10    1
     7    87    88    1
     8    10    11    1
     9    10    13    1
    10    11    12    2
    11    60    59    1
    12    93    91   am
    13    91    92    2
    14     2     5    1
    15     2     1    1
    16     5     6    1
    17    57    59   ar
    18    57    55   ar
    19    14    13    1
    20    14    16    1
    21    59    58   ar
    22    13    15    1
    23    88    89    2
    24    88    94   am
    25     6     7    1
    26     7     8    1
    27    94    95    1
    28    55    54   ar
    29    58    56   ar
    30    97    96    2
    31    54    56   ar
    32    54    53    1
    33    37    38    2
    34    37    36    1
    35    95    96    1
    36    95    98    1
    37    39    40    1
    38    39    36    1
    39    41    40   ar
    40    40    42   ar
    41   101   103   ar
    42   101    99   ar
    43    36    35    1
    44   103   102   ar
    45    24    23    2
    46    99    98    1
    47    99   100   ar
    48    50    49    1
    49    50    53    1
    50    50    51    1
    51   102   100   ar
    52    34    32   ar
    53    84    85   ar
    54    84    82   ar
    55    85    83   ar
    56    33    32   ar
    57    23    25   am
    58    23    22    1
    59    32    31    1
    60    52    51    2
    61    21    22    1
    62    21    18    1
    63    19    20    2
    64    19    18    1
    65    51    61   am
    66    82    79   ar
    67    83    81   ar
    68    18    17    1
    69    30    31    1
    70    30    27    1
    71    29    28    2
    72    47    48    1
    73    47    44    1
    74    61    62    1
    75    79    81   ar
    76    79    77   ar
    77    81    80   ar
    78    44    43    1
    79    44    45    1
    80    71    70   ar
    81    71    69   ar
    82    28    27    1
    83    27    26    1
    84    70    68   ar
    85    69    67   ar
    86    62    63    1
    87    62    65    1
    88    80    78   ar
    89    68    66   ar
    90    77    76    1
    91    77    78   ar
    92    67    66   ar
    93    63    64    2
    94    66    65    1
    95    76    73    1
    96    45    46    2
    97    72    73    1
    98    73    74    1
    99    75    74    2
