@<TRIPOS>MOLECULE
tmp/3a9tB01.pdb
 103 99 0 0 0
SMALL
GASTEIGER

@<TRIPOS>ATOM
      1  N         27.6630    0.3880   39.1690 N.3   189  MET189     -0.1245
      2  CA        26.9840    1.2350   40.1410 C.3   189  MET189      0.1570
      3  C         25.5990    1.7110   39.7030 C.2   189  MET189      0.2261
      4  O         25.2480    2.8830   39.8850 O.2   189  MET189     -0.2867
      5  CB        27.8570    2.4420   40.4740 C.3   189  MET189      0.0387
      6  CG        29.2450    2.0800   40.9480 C.3   189  MET189      0.0595
      7  SD        30.1640    3.5580   41.4390 S.3   189  MET189     -0.1393
      8  CE        30.6030    4.2410   39.8700 C.3   189  MET189      0.0692
      9  N         24.4640    2.4520   36.8870 N.3   191  ILE191     -0.1245
     10  CA        24.4500    3.3820   35.7550 C.3   191  ILE191      0.1561
     11  C         23.6780    2.7760   34.5790 C.2   191  ILE191      0.2260
     12  O         24.0690    1.7440   34.0300 O.2   191  ILE191     -0.2867
     13  CB        25.8880    3.7230   35.3090 C.3   191  ILE191      0.0252
     14  CG1       26.5830    4.5080   36.4240 C.3   191  ILE191      0.0019
     15  CG2       25.8710    4.5190   34.0050 C.3   191  ILE191      0.0019
     16  CD1       28.0620    4.6680   36.2280 C.3   191  ILE191      0.0001
     17  N         34.2990   -0.1930   39.0910 N.3   306  GLN306     -0.1245
     18  CA        33.5910   -0.0530   40.3610 C.3   306  GLN306      0.1566
     19  C         32.2880   -0.8670   40.2550 C.2   306  GLN306      0.2260
     20  O         31.6330   -0.8960   39.1850 O.2   306  GLN306     -0.2867
     21  CB        33.2250    1.4080   40.6390 C.3   306  GLN306      0.0367
     22  CG        34.3900    2.3580   40.3380 C.3   306  GLN306      0.0905
     23  CD        34.0250    3.8350   40.4540 C.2   306  GLN306      0.2608
     24  OE1       33.5960    4.2990   41.5110 O.2   306  GLN306     -0.2717
     25  NE2       34.1920    4.5770   39.3630 N.am  306  GLN306     -0.0878
     26  N         33.5220    2.6250   33.2210 N.3   341  GLU341     -0.1245
     27  CA        32.3470    2.1190   33.9200 C.3   341  GLU341      0.1567
     28  C         31.3890    1.3500   33.0210 C.2   341  GLU341      0.2260
     29  O         30.1820    1.2840   33.2770 O.2   341  GLU341     -0.2867
     30  CB        31.6280    3.2870   34.5930 C.3   341  GLU341      0.0388
     31  CG        32.4390    3.8920   35.7210 C.3   341  GLU341      0.1160
     32  CD        31.9380    5.2530   36.1360 C.2   341  GLU341      0.3649
     33  OE1       30.8020    5.6120   35.7620 O.co2 341  GLU341     -0.2457
     34  OE2       32.6780    5.9650   36.8460 O.co2 341  GLU341     -0.2457
     35  N         32.4230   13.2920   32.8800 N.3   365  ASP365     -0.1239
     36  CA        31.2490   13.4980   33.7220 C.3   365  ASP365      0.1674
     37  C         30.8410   14.9590   33.6000 C.2   365  ASP365      0.2266
     38  O         31.7020   15.8390   33.5270 O.2   365  ASP365     -0.2867
     39  CB        31.5770   13.2590   35.1970 C.3   365  ASP365      0.1410
     40  CG        31.2450   11.8660   35.6630 C.2   365  ASP365      0.3668
     41  OD1       30.5240   11.7450   36.6730 O.co2 365  ASP365     -0.2456
     42  OD2       31.7100   10.8920   35.0450 O.co2 365  ASP365     -0.2456
     43  N         35.7750   10.5990   36.2220 N.3   397  SER397     -0.1217
     44  CA        36.2650   10.1890   37.5310 C.3   397  SER397      0.1889
     45  C         37.6760    9.6020   37.5420 C.2   397  SER397      0.2288
     46  O         37.9530    8.6900   38.3150 O.2   397  SER397     -0.2866
     47  CB        35.2880    9.1950   38.1760 C.3   397  SER397      0.2089
     48  OG        35.1150    8.0430   37.3720 O.3   397  SER397     -0.2183
     49  N         37.6230    5.9000   47.5300 N.3   443  TYR443     -0.1227
     50  CA        36.7200    5.5080   46.4470 C.3   443  TYR443      0.1736
     51  C         37.2210    4.2140   45.7910 C.2   443  TYR443      0.2595
     52  O         36.4400    3.3200   45.4730 O.2   443  TYR443     -0.2718
     53  CB        36.6600    6.5850   45.3530 C.3   443  TYR443      0.0548
     54  CG        35.7710    7.7830   45.6130 C.ar  443  TYR443     -0.0200
     55  CD1       34.5250    7.6430   46.2340 C.ar  443  TYR443     -0.0009
     56  CD2       36.1490    9.0560   45.1760 C.ar  443  TYR443     -0.0009
     57  CE1       33.6830    8.7400   46.4120 C.ar  443  TYR443      0.0417
     58  CE2       35.3120   10.1560   45.3460 C.ar  443  TYR443      0.0417
     59  CZ        34.0810    9.9920   45.9670 C.ar  443  TYR443      0.1957
     60  OH        33.2520   11.0790   46.1430 O.3   443  TYR443     -0.2866
     61  N         38.5340    4.1380   45.5920 N.am  444  PHE444     -0.1976
     62  CA        39.1640    2.9950   44.9450 C.3   444  PHE444      0.1639
     63  C         40.1600    2.3080   45.8770 C.2   444  PHE444      0.2290
     64  O         41.3680    2.5350   45.7920 O.2   444  PHE444     -0.2864
     65  CB        39.8800    3.4770   43.6820 C.3   444  PHE444      0.0560
     66  CG        39.0160    4.3110   42.7770 C.ar  444  PHE444     -0.0200
     67  CD1       38.1200    3.7130   41.9000 C.ar  444  PHE444     -0.0042
     68  CD2       39.0750    5.7000   42.8300 C.ar  444  PHE444     -0.0042
     69  CE1       37.2910    4.4870   41.0880 C.ar  444  PHE444     -0.0003
     70  CE2       38.2510    6.4840   42.0240 C.ar  444  PHE444     -0.0003
     71  CZ        37.3560    5.8770   41.1510 C.ar  444  PHE444     -0.0000
     72  N         41.6780   14.4570   39.0760 N.3   502  TRP502     -0.1241
     73  CA        41.0180   13.9830   37.8640 C.3   502  TRP502      0.1605
     74  C         41.1970   15.0000   36.7490 C.2   502  TRP502      0.2264
     75  O         41.5040   16.1670   37.0060 O.2   502  TRP502     -0.2867
     76  CB        39.5290   13.7560   38.1150 C.3   502  TRP502      0.0550
     77  CG        39.2450   12.7480   39.1960 C.ar  502  TRP502      0.0003
     78  CD1       40.1350   11.8810   39.7620 C.ar  502  TRP502      0.0946
     79  CD2       37.9820   12.4910   39.8220 C.ar  502  TRP502      0.0152
     80  NE1       39.5080   11.1060   40.7010 N.ar  502  TRP502     -0.2442
     81  CE2       38.1850   11.4570   40.7590 C.ar  502  TRP502      0.0810
     82  CE3       36.6970   13.0350   39.6800 C.ar  502  TRP502      0.0012
     83  CZ2       37.1500   10.9510   41.5550 C.ar  502  TRP502      0.0191
     84  CZ3       35.6670   12.5340   40.4700 C.ar  502  TRP502      0.0001
     85  CH2       35.9010   11.5030   41.3960 C.ar  502  TRP502      0.0015
     86  N         24.7800   11.4250   33.2030 N.3   530  ASN530     -0.1225
     87  CA        25.8980   11.9830   33.9470 C.3   530  ASN530      0.1785
     88  C         27.1330   12.1200   33.0550 C.2   530  ASN530      0.2597
     89  O         28.0140   12.9390   33.3100 O.2   530  ASN530     -0.2718
     90  CB        26.2320   11.0800   35.1410 C.3   530  ASN530      0.1169
     91  CG        26.3540    9.6130   34.7470 C.2   530  ASN530      0.2627
     92  OD1       27.3030    8.9340   35.1310 O.2   530  ASN530     -0.2716
     93  ND2       25.3860    9.1200   33.9830 N.am  530  ASN530     -0.0877
     94  N         27.1840   11.3110   32.0060 N.am  531  HIS531     -0.1975
     95  CA        28.3170   11.3140   31.0920 C.3   531  HIS531      0.1656
     96  C         28.0400   11.9790   29.7660 C.2   531  HIS531      0.2291
     97  O         26.8900   12.1990   29.3920 O.2   531  HIS531     -0.2864
     98  CB        28.7690    9.8800   30.8190 C.3   531  HIS531      0.0771
     99  CG        29.3390    9.1900   32.0150 C.ar  531  HIS531      0.0820
    100  ND1       29.4350    7.8200   32.1430 N.ar  531  HIS531     -0.2267
    101  CD2       29.8830    9.7040   33.1450 C.ar  531  HIS531      0.1154
    102  CE1       30.0210    7.5530   33.3200 C.ar  531  HIS531      0.1986
    103  NE2       30.3140    8.6640   33.9650 N.ar  531  HIS531     -0.2212
@<TRIPOS>BOND
     1    97    96    2
     2    96    95    1
     3    98    95    1
     4    98    99    1
     5    95    94    1
     6    94    88   am
     7    99   100   ar
     8    99   101   ar
     9   100   102   ar
    10    35    36    1
    11    28    29    2
    12    28    27    1
    13    88    89    2
    14    88    87    1
    15   101   103   ar
    16    86    87    1
    17    26    27    1
    18   102   103   ar
    19    38    37    2
    20    37    36    1
    21    36    39    1
    22    27    30    1
    23    87    90    1
    24    93    91   am
    25    15    13    1
    26    12    11    2
    27    11    10    1
    28    30    31    1
    29    91    92    2
    30    91    90    1
    31    42    40   ar
    32    39    40    1
    33    13    10    1
    34    13    14    1
    35    40    41   ar
    36    31    32    1
    37    10     9    1
    38    33    32   ar
    39    32    34   ar
    40    43    44    1
    41    16    14    1
    42    74    75    2
    43    74    73    1
    44    48    47    1
    45    44    45    1
    46    44    47    1
    47    45    46    2
    48    73    76    1
    49    73    72    1
    50    76    77    1
    51    17    18    1
    52     1     2    1
    53    20    19    2
    54    77    78   ar
    55    77    79   ar
    56    25    23   am
    57    82    79   ar
    58    82    84   ar
    59     3     4    2
    60     3     2    1
    61    78    80   ar
    62    79    81   ar
    63     8     7    1
    64     2     5    1
    65    19    18    1
    66    22    23    1
    67    22    21    1
    68    18    21    1
    69    23    24    2
    70    84    85   ar
    71     5     6    1
    72    80    81   ar
    73    81    83   ar
    74     6     7    1
    75    69    71   ar
    76    69    67   ar
    77    71    70   ar
    78    85    83   ar
    79    67    66   ar
    80    70    68   ar
    81    66    68   ar
    82    66    65    1
    83    65    62    1
    84    62    61    1
    85    62    63    1
    86    56    58   ar
    87    56    54   ar
    88    58    59   ar
    89    53    54    1
    90    53    50    1
    91    52    51    2
    92    61    51   am
    93    54    55   ar
    94    51    50    1
    95    64    63    2
    96    59    60    1
    97    59    57   ar
    98    55    57   ar
    99    50    49    1
