@<TRIPOS>MOLECULE
tmp/3a9vA00.pdb
 168 158 0 0 0
SMALL
GASTEIGER

@<TRIPOS>ATOM
      1  N        -15.8530  -14.3510   15.6020 N.3   182  SER182     -0.1217
      2  CA       -17.1910  -14.4060   15.0110 C.3   182  SER182      0.1889
      3  C        -17.3490  -15.6590   14.1450 C.2   182  SER182      0.2288
      4  O        -16.3950  -16.0910   13.4970 O.2   182  SER182     -0.2866
      5  CB       -17.4290  -13.1720   14.1440 C.3   182  SER182      0.2089
      6  OG       -18.6270  -13.3040   13.3930 O.3   182  SER182     -0.2183
      7  N        -17.2690   -6.7990   22.5910 N.3   230  HIS230     -0.1241
      8  CA       -17.8130   -6.9750   21.2490 C.3   230  HIS230      0.1621
      9  C        -17.3390   -5.7450   20.4820 C.2   230  HIS230      0.2264
     10  O        -17.4790   -4.6240   20.9640 O.2   230  HIS230     -0.2867
     11  CB       -19.3420   -7.0410   21.2540 C.3   230  HIS230      0.0745
     12  CG       -19.9280   -7.3280   19.9030 C.ar  230  HIS230      0.0817
     13  ND1      -19.8610   -6.4310   18.8550 N.ar  230  HIS230     -0.2268
     14  CD2      -20.5440   -8.4310   19.4140 C.ar  230  HIS230      0.1154
     15  CE1      -20.4100   -6.9710   17.7810 C.ar  230  HIS230      0.1986
     16  NE2      -20.8320   -8.1840   18.0930 N.ar  230  HIS230     -0.2212
     17  N        -29.0970   -1.0030   17.3740 N.3   301  GLY301     -0.1210
     18  CA       -28.4310   -1.8490   16.4020 C.3   301  GLY301      0.1956
     19  C        -28.3520   -3.2840   16.8870 C.2   301  GLY301      0.2612
     20  O        -28.9770   -3.6410   17.8870 O.2   301  GLY301     -0.2717
     21  N        -27.5910   -4.1090   16.1750 N.am  302  GLY302     -0.1942
     22  CA       -27.4230   -5.4980   16.5670 C.3   302  GLY302      0.2014
     23  C        -28.5140   -6.4320   16.0830 C.2   302  GLY302      0.2639
     24  O        -28.2540   -7.5950   15.7730 O.2   302  GLY302     -0.2714
     25  N        -29.7380   -5.9210   16.0200 N.am  303  ALA303     -0.1963
     26  CA       -30.8930   -6.6970   15.5860 C.3   303  ALA303      0.1713
     27  C        -32.0100   -5.7020   15.3670 C.2   303  ALA303      0.2458
     28  O        -31.9240   -4.5610   15.8230 O.2   303  ALA303     -0.2730
     29  CB       -31.2940   -7.6970   16.6610 C.3   303  ALA303      0.0333
     30  N        -33.0780   -6.1160   14.6710 N.am  304  PRO304     -0.2727
     31  CA       -34.1980   -5.2000   14.4230 C.3   304  PRO304      0.1402
     32  C        -34.9850   -4.9370   15.6950 C.2   304  PRO304      0.2269
     33  O        -35.1250   -5.8220   16.5370 O.2   304  PRO304     -0.2865
     34  CB       -35.0300   -5.9500   13.3910 C.3   304  PRO304      0.0296
     35  CG       -34.8610   -7.3790   13.8390 C.3   304  PRO304      0.0237
     36  CD       -33.3660   -7.4590   14.1320 C.3   304  PRO304      0.0939
     37  N        -31.9700    3.4430   13.8270 N.3   324  GLN324     -0.1231
     38  CA       -31.3680    2.1120   13.8600 C.3   324  GLN324      0.1698
     39  C        -30.2630    1.9910   12.8280 C.2   324  GLN324      0.2593
     40  O        -30.3700    2.5240   11.7210 O.2   324  GLN324     -0.2718
     41  CB       -32.4120    1.0230   13.5890 C.3   324  GLN324      0.0381
     42  CG       -33.5740    0.9990   14.5570 C.3   324  GLN324      0.0905
     43  CD       -34.5200   -0.1650   14.3010 C.2   324  GLN324      0.2608
     44  OE1      -34.1590   -1.3320   14.4940 O.2   324  GLN324     -0.2717
     45  NE2      -35.7380    0.1490   13.8590 N.am  324  GLN324     -0.0878
     46  N        -29.2060    1.2840   13.2070 N.am  325  GLY325     -0.1942
     47  CA       -28.0780    1.0730   12.3240 C.3   325  GLY325      0.2014
     48  C        -27.8630   -0.4140   12.1100 C.2   325  GLY325      0.2639
     49  O        -28.5770   -1.2400   12.6850 O.2   325  GLY325     -0.2714
     50  N        -26.8530   -0.7590   11.3170 N.am  326  TYR326     -0.1959
     51  CA       -26.5790   -2.1460   10.9920 C.3   326  TYR326      0.1771
     52  C        -25.0890   -2.4670   10.9140 C.2   326  TYR326      0.2620
     53  O        -24.3410   -1.8090   10.1880 O.2   326  TYR326     -0.2715
     54  CB       -27.2680   -2.4560    9.6600 C.3   326  TYR326      0.0574
     55  CG       -26.7720   -3.6650    8.9050 C.ar  326  TYR326     -0.0198
     56  CD1      -26.5700   -4.8920    9.5440 C.ar  326  TYR326     -0.0009
     57  CD2      -26.5800   -3.6020    7.5260 C.ar  326  TYR326     -0.0009
     58  CE1      -26.1940   -6.0280    8.8230 C.ar  326  TYR326      0.0417
     59  CE2      -26.2060   -4.7300    6.7950 C.ar  326  TYR326      0.0417
     60  CZ       -26.0180   -5.9370    7.4500 C.ar  326  TYR326      0.1957
     61  OH       -25.6710   -7.0470    6.7230 O.3   326  TYR326     -0.2866
     62  N        -24.6680   -3.4900   11.6570 N.am  327  GLY327     -0.1940
     63  CA       -23.2750   -3.8830   11.6490 C.3   327  GLY327      0.2014
     64  C        -23.0530   -5.3860   11.6280 C.2   327  GLY327      0.2639
     65  O        -23.9700   -6.1620   11.8950 O.2   327  GLY327     -0.2714
     66  N        -21.8290   -5.7850   11.2930 N.am  328  MET328     -0.1963
     67  CA       -21.4180   -7.1860   11.2490 C.3   328  MET328      0.1736
     68  C        -19.9060   -7.1800   11.4990 C.2   328  MET328      0.2617
     69  O        -19.1690   -6.5050   10.7920 O.2   328  MET328     -0.2715
     70  CB       -21.7210   -7.8070    9.8780 C.3   328  MET328      0.0427
     71  CG       -21.3310   -9.2770    9.7700 C.3   328  MET328      0.0599
     72  SD       -21.5970   -9.9930    8.1330 S.3   328  MET328     -0.1393
     73  CE       -20.6610  -11.5190    8.2460 C.3   328  MET328      0.0692
     74  N        -19.4540   -7.9280   12.5030 N.am  329  THR329     -0.1937
     75  CA       -18.0390   -7.9830   12.8690 C.3   329  THR329      0.2028
     76  C        -17.0370   -7.8450   11.7120 C.2   329  THR329      0.2642
     77  O        -16.1980   -6.9450   11.7140 O.2   329  THR329     -0.2714
     78  CB       -17.7070   -9.2930   13.6380 C.3   329  THR329      0.1808
     79  OG1      -18.5960   -9.4490   14.7540 O.3   329  THR329     -0.2208
     80  CG2      -16.2750   -9.2460   14.1670 C.3   329  THR329      0.0379
     81  N        -17.1280   -8.7410   10.7300 N.am  330  GLU330     -0.1976
     82  CA       -16.2070   -8.7340    9.5920 C.3   330  GLU330      0.1602
     83  C        -16.2520   -7.4760    8.7380 C.2   330  GLU330      0.2287
     84  O        -15.3570   -7.2580    7.9320 O.2   330  GLU330     -0.2864
     85  CB       -16.4490   -9.9540    8.6870 C.3   330  GLU330      0.0415
     86  CG       -16.2320  -11.3030    9.3620 C.3   330  GLU330      0.1163
     87  CD       -17.4640  -11.8030   10.0990 C.2   330  GLU330      0.3649
     88  OE1      -18.3610  -10.9890   10.4110 O.co2 330  GLU330     -0.2457
     89  OE2      -17.5280  -13.0170   10.3750 O.co2 330  GLU330     -0.2457
     90  N        -17.2850   -2.8530   12.3190 N.3   333  PRO333     -0.2116
     91  CA       -18.3590   -3.6500   11.7300 C.3   333  PRO333      0.1372
     92  C        -19.5350   -2.8460   11.1660 C.2   333  PRO333      0.2244
     93  O        -20.5010   -3.4340   10.6840 O.2   333  PRO333     -0.2868
     94  CB       -18.8000   -4.4940   12.9070 C.3   333  PRO333      0.0268
     95  CG       -18.8320   -3.4590   14.0020 C.3   333  PRO333      0.0207
     96  CD       -17.5750   -2.6000   13.7440 C.3   333  PRO333      0.0892
     97  N        -32.8860    0.6430    8.2710 N.3   353  CYS353     -0.1235
     98  CA       -31.6380    0.0970    8.7620 C.3   353  CYS353      0.1677
     99  C        -30.4890    1.1150    8.6420 C.2   353  CYS353      0.2270
    100  O        -29.3530    0.8420    9.0320 O.2   353  CYS353     -0.2867
    101  CB       -31.3500   -1.1300    7.8990 C.3   353  CYS353      0.0956
    102  SG       -30.3160   -2.3470    8.5760 S.3   353  CYS353     -0.0801
    103  N        -26.8410  -11.7710    4.8020 N.3   413  ASP413     -0.1239
    104  CA       -28.1090  -11.1550    5.1850 C.3   413  ASP413      0.1674
    105  C        -28.8560  -10.7730    3.9160 C.2   413  ASP413      0.2266
    106  O        -28.2370  -10.3820    2.9240 O.2   413  ASP413     -0.2867
    107  CB       -27.8870   -9.8750    5.9990 C.3   413  ASP413      0.1410
    108  CG       -27.2030  -10.1240    7.3230 C.2   413  ASP413      0.3668
    109  OD1      -27.7350  -10.9210    8.1260 O.co2 413  ASP413     -0.2456
    110  OD2      -26.1360   -9.5140    7.5570 O.co2 413  ASP413     -0.2456
    111  N        -33.4900   -4.8210    6.0630 N.3   425  ILE425     -0.1245
    112  CA       -33.1240   -6.2260    6.1590 C.3   425  ILE425      0.1561
    113  C        -34.4170   -7.0230    6.3460 C.2   425  ILE425      0.2260
    114  O        -35.1820   -6.7650    7.2730 O.2   425  ILE425     -0.2867
    115  CB       -32.1480   -6.4510    7.3410 C.3   425  ILE425      0.0252
    116  CG1      -30.8190   -5.7580    7.0350 C.3   425  ILE425      0.0019
    117  CG2      -31.9280   -7.9300    7.5810 C.3   425  ILE425      0.0019
    118  CD1      -29.8050   -5.8350    8.1650 C.3   425  ILE425      0.0001
    119  N        -32.4300  -13.6750    6.5920 N.3   428  ARG428     -0.1245
    120  CA       -31.0560  -14.0930    6.8150 C.3   428  ARG428      0.1563
    121  C        -30.7550  -15.4080    6.1180 C.2   428  ARG428      0.2260
    122  O        -31.4360  -16.4050    6.3220 O.2   428  ARG428     -0.2867
    123  CB       -30.7830  -14.2430    8.3070 C.3   428  ARG428      0.0307
    124  CG       -29.3500  -14.6300    8.6370 C.3   428  ARG428      0.0489
    125  CD       -29.1980  -14.8020   10.1320 C.3   428  ARG428      0.2205
    126  NE       -29.6710  -13.6270   10.8590 N.pl3 428  ARG428     -0.0865
    127  CZ       -30.0850  -13.6520   12.1220 C.cat 428  ARG428      0.5346
    128  NH1      -30.0870  -14.7940   12.7980 N.pl3 428  ARG428      0.1354
    129  NH2      -30.4990  -12.5390   12.7110 N.pl3 428  ARG428      0.1354
    130  N        -27.4420  -16.8820    6.1050 N.3   430  LYS430     -0.1245
    131  CA       -26.5560  -17.6380    6.9850 C.3   430  LYS430      0.1561
    132  C        -27.3000  -18.2790    8.1580 C.2   430  LYS430      0.2260
    133  O        -28.3960  -17.8640    8.5200 O.2   430  LYS430     -0.2867
    134  CB       -25.4280  -16.7380    7.5050 C.3   430  LYS430      0.0271
    135  CG       -25.9060  -15.5180    8.2630 C.3   430  LYS430      0.0035
    136  CD       -24.7610  -14.5960    8.5310 C.3   430  LYS430      0.0206
    137  CE       -25.2540  -13.2250    8.9150 C.3   430  LYS430      0.1093
    138  NZ       -24.1060  -12.2990    9.0580 N.3   430  LYS430     -0.1314
    139  N        -26.4450  -18.2350   11.2430 N.3   432  LEU432     -0.1245
    140  CA       -26.2820  -17.4670   12.4690 C.3   432  LEU432      0.1561
    141  C        -27.5490  -17.3360   13.3160 C.2   432  LEU432      0.2260
    142  O        -28.6310  -17.0520   12.7990 O.2   432  LEU432     -0.2867
    143  CB       -25.7750  -16.0700   12.1260 C.3   432  LEU432      0.0270
    144  CG       -25.5860  -15.1350   13.3150 C.3   432  LEU432      0.0019
    145  CD1      -24.4900  -15.6870   14.2160 C.3   432  LEU432      0.0001
    146  CD2      -25.2250  -13.7450   12.8160 C.3   432  LEU432      0.0001
    147  N        -29.1920  -15.3730   16.6880 N.3   434  LYS434     -0.1245
    148  CA       -28.9530  -14.2720   17.6100 C.3   434  LYS434      0.1561
    149  C        -29.9500  -14.2580   18.7590 C.2   434  LYS434      0.2260
    150  O        -31.1460  -14.0360   18.5710 O.2   434  LYS434     -0.2867
    151  CB       -28.9620  -12.9240   16.8740 C.3   434  LYS434      0.0271
    152  CG       -27.9480  -12.8480   15.7350 C.3   434  LYS434      0.0035
    153  CD       -27.4890  -11.4250   15.4560 C.3   434  LYS434      0.0206
    154  CE       -26.5120  -10.9460   16.5190 C.3   434  LYS434      0.1093
    155  NZ       -25.9650   -9.5930   16.2060 N.3   434  LYS434     -0.1314
    156  N        -29.2930  -10.3630   21.0950 N.3   437  GLY437     -0.1225
    157  CA       -28.2280   -9.5790   20.4950 C.3   437  GLY437      0.1811
    158  C        -26.8970  -10.3130   20.4670 C.2   437  GLY437      0.2280
    159  O        -25.9910   -9.9280   19.7340 O.2   437  GLY437     -0.2866
    160  N        -24.3570  -13.4070   19.6020 N.3   439  GLN439     -0.1245
    161  CA       -24.2270  -14.3260   18.4910 C.3   439  GLN439      0.1566
    162  C        -24.0840  -15.7590   19.0170 C.2   439  GLN439      0.2260
    163  O        -23.3340  -16.0110   19.9620 O.2   439  GLN439     -0.2867
    164  CB       -23.0030  -13.9480   17.6620 C.3   439  GLN439      0.0367
    165  CG       -22.5670  -15.0460   16.7370 C.3   439  GLN439      0.0905
    166  CD       -21.3720  -14.6790   15.8910 C.2   439  GLN439      0.2608
    167  OE1      -20.4850  -15.5060   15.6920 O.2   439  GLN439     -0.2717
    168  NE2      -21.3430  -13.4480   15.3760 N.am  439  GLN439     -0.0878
@<TRIPOS>BOND
     1   106   105    2
     2   105   104    1
     3   103   104    1
     4   104   107    1
     5   107   108    1
     6   111   112    1
     7   130   131    1
     8   121   122    2
     9   121   120    1
    10   112   113    1
    11   112   115    1
    12   113   114    2
    13   119   120    1
    14    61    60    1
    15    59    60   ar
    16    59    57   ar
    17   120   123    1
    18   131   134    1
    19   131   132    1
    20   116   115    1
    21   116   118    1
    22   108   110   ar
    23   108   109   ar
    24   115   117    1
    25    60    58   ar
    26   134   135    1
    27    57    55   ar
    28   101   102    1
    29   101    98    1
    30    84    83    2
    31    72    73    1
    32    72    71    1
    33   132   133    2
    34   135   136    1
    35    97    98    1
    36   123   124    1
    37   136   137    1
    38   124   125    1
    39    99    98    1
    40    99   100    2
    41    85    86    1
    42    85    82    1
    43    83    82    1
    44    58    56   ar
    45    55    56   ar
    46    55    54    1
    47   137   138    1
    48    86    87    1
    49    82    81    1
    50    54    51    1
    51    71    70    1
    52    70    67    1
    53    87    89   ar
    54    87    88   ar
    55   125   126    1
    56    53    52    2
    57    93    92    2
    58    81    76   am
    59    69    68    2
    60   126   127    2
    61    52    51    1
    62    52    62   am
    63    51    50    1
    64    92    91    1
    65   139   140    1
    66    67    66    1
    67    67    68    1
    68    66    64   am
    69    50    48   am
    70    68    74   am
    71    64    63    1
    72    64    65    2
    73    63    62    1
    74    76    77    2
    75    76    75    1
    76    40    39    2
    77    91    90    1
    78    91    94    1
    79    48    47    1
    80    48    49    2
    81   127   129    1
    82   127   128    1
    83   143   140    1
    84   143   144    1
    85    90    96    1
    86    47    46    1
    87   140   141    1
    88    74    75    1
    89   142   141    2
    90   146   144    1
    91    39    46   am
    92    39    38    1
    93    75    78    1
    94    94    95    1
    95   144   145    1
    96    34    35    1
    97    34    31    1
    98     6     5    1
    99     4     3    2
   100    41    38    1
   101    41    42    1
   102    78    80    1
   103    78    79    1
   104    96    95    1
   105    37    38    1
   106    35    36    1
   107    45    43   am
   108    36    30    1
   109     5     2    1
   110     3     2    1
   111    43    44    2
   112    43    42    1
   113    31    30    1
   114    31    32    1
   115    30    27   am
   116     2     1    1
   117    27    26    1
   118    27    28    2
   119   168   166   am
   120   153   152    1
   121   153   154    1
   122    26    25    1
   123    26    29    1
   124   167   166    2
   125    32    33    2
   126   152   151    1
   127    24    23    2
   128   166   165    1
   129    25    23   am
   130    23    22    1
   131    21    22    1
   132    21    19   am
   133   155   154    1
   134    18    19    1
   135    18    17    1
   136   147   148    1
   137   165   164    1
   138   151   148    1
   139    19    20    2
   140   148   149    1
   141   164   161    1
   142    15    16   ar
   143    15    13   ar
   144    16    14   ar
   145   161   162    1
   146   161   160    1
   147   150   149    2
   148    13    12   ar
   149   162   163    2
   150    14    12   ar
   151   159   158    2
   152    12    11    1
   153   158   157    1
   154     9    10    2
   155     9     8    1
   156   157   156    1
   157     8    11    1
   158     8     7    1
