@<TRIPOS>MOLECULE
tmp/3a9wB00.pdb
 120 118 0 0 0
SMALL
GASTEIGER

@<TRIPOS>ATOM
      1  N        -32.5040   28.4950   15.4560 N.3    10  GLN10      -0.1245
      2  CA       -33.2730   27.3100   15.2210 C.3    10  GLN10       0.1566
      3  C        -33.7390   26.6450   16.5090 C.2    10  GLN10       0.2260
      4  O        -34.8430   26.2010   16.6300 O.2    10  GLN10      -0.2867
      5  CB       -32.5150   26.2780   14.3610 C.3    10  GLN10       0.0367
      6  CG       -33.4110   25.1150   13.9280 C.3    10  GLN10       0.0905
      7  CD       -32.7150   23.9310   13.3190 C.2    10  GLN10       0.2608
      8  OE1      -33.3550   23.0000   12.8580 O.2    10  GLN10      -0.2717
      9  NE2      -31.4310   23.9500   13.3290 N.am   10  GLN10      -0.0878
     10  N        -22.8130   29.5410   12.5640 N.3    73  LEU73      -0.1231
     11  CA       -22.6940   28.1360   12.2340 C.3    73  LEU73       0.1693
     12  C        -21.7570   27.8660   11.0290 C.2    73  LEU73       0.2592
     13  O        -21.1050   28.7110   10.5790 O.2    73  LEU73      -0.2718
     14  CB       -24.0480   27.4650   12.0480 C.3    73  LEU73       0.0284
     15  CG       -25.1350   27.6300   13.0750 C.3    73  LEU73       0.0019
     16  CD1      -26.3860   26.9090   12.7010 C.3    73  LEU73       0.0001
     17  CD2      -24.6550   27.1910   14.3310 C.3    73  LEU73       0.0001
     18  N        -21.7460   26.6390   10.5580 N.am   74  SER74      -0.1952
     19  CA       -20.6720   26.1840    9.7040 C.3    74  SER74       0.1924
     20  C        -20.5990   26.9420    8.3630 C.2    74  SER74       0.2314
     21  O        -19.5990   27.5020    8.0260 O.2    74  SER74      -0.2863
     22  CB       -20.7550   24.6830    9.5000 C.3    74  SER74       0.2116
     23  OG       -21.8580   24.3440    8.7600 O.3    74  SER74      -0.2180
     24  N        -21.2440   20.4840   18.5110 N.3   112  THR112     -0.1203
     25  CA       -21.5700   20.0870   17.1660 C.3   112  THR112      0.1994
     26  C        -20.6500   19.0040   16.6490 C.2   112  THR112      0.2617
     27  O        -19.5440   18.9040   17.0600 O.2   112  THR112     -0.2717
     28  CB       -21.4250   21.3210   16.2440 C.3   112  THR112      0.1784
     29  OG1      -21.5400   20.9380   14.8920 O.3   112  THR112     -0.2211
     30  CG2      -20.1130   21.9960   16.4710 C.3   112  THR112      0.0376
     31  N        -21.1620   18.2190   15.7330 N.am  113  ILE113     -0.1979
     32  CA       -20.3310   17.3310   14.9670 C.3   113  ILE113      0.1595
     33  C        -19.2950   18.1250   14.1890 C.2   113  ILE113      0.2287
     34  O        -18.3560   17.5910   13.7080 O.2   113  ILE113     -0.2864
     35  CB       -21.1330   16.4580   14.0220 C.3   113  ILE113      0.0276
     36  CG1      -21.9600   17.3160   13.0940 C.3   113  ILE113      0.0022
     37  CG2      -22.0300   15.4880   14.8430 C.3   113  ILE113      0.0022
     38  CD1      -22.6830   16.5160   12.0140 C.3   113  ILE113      0.0001
     39  N        -16.0660   27.5420   12.2770 N.3   137  PHE137     -0.1241
     40  CA       -17.1190   27.1360   13.2480 C.3   137  PHE137      0.1605
     41  C        -16.5960   26.0070   14.1750 C.2   137  PHE137      0.2264
     42  O        -16.5730   26.1310   15.3520 O.2   137  PHE137     -0.2867
     43  CB       -18.3750   26.7390   12.4870 C.3   137  PHE137      0.0534
     44  CG       -19.4220   25.9150   13.2590 C.ar  137  PHE137     -0.0203
     45  CD1      -20.2360   26.4750   14.1880 C.ar  137  PHE137     -0.0042
     46  CD2      -19.6860   24.6230   12.9090 C.ar  137  PHE137     -0.0042
     47  CE1      -21.2010   25.7580   14.7880 C.ar  137  PHE137     -0.0003
     48  CE2      -20.6320   23.9240   13.5230 C.ar  137  PHE137     -0.0003
     49  CZ       -21.3880   24.4950   14.4540 C.ar  137  PHE137     -0.0000
     50  N        -24.5040   18.1920   18.9310 N.3   164  TYR164     -0.1228
     51  CA       -25.6450   17.9110   18.1190 C.3   164  TYR164      0.1721
     52  C        -25.2400   17.4880   16.6990 C.2   164  TYR164      0.2437
     53  O        -24.2750   17.9520   16.2000 O.2   164  TYR164     -0.2733
     54  CB       -26.5390   19.1250   17.9810 C.3   164  TYR164      0.0547
     55  CG       -27.4860   19.4140   19.0870 C.ar  164  TYR164     -0.0200
     56  CD1      -28.3200   18.4470   19.6000 C.ar  164  TYR164     -0.0009
     57  CD2      -27.6050   20.6810   19.5720 C.ar  164  TYR164     -0.0009
     58  CE1      -29.2130   18.7640   20.5910 C.ar  164  TYR164      0.0417
     59  CE2      -28.4810   20.9920   20.5230 C.ar  164  TYR164      0.0417
     60  CZ       -29.2840   20.0320   21.0430 C.ar  164  TYR164      0.1957
     61  OH       -30.1480   20.3820   22.0050 O.3   164  TYR164     -0.2866
     62  N        -26.0370   16.6400   16.0700 N.am  165  PRO165     -0.2718
     63  CA       -25.9140   16.4050   14.6450 C.3   165  PRO165      0.1535
     64  C        -26.7500   17.4420   13.9080 C.2   165  PRO165      0.2599
     65  O        -27.0530   18.3940   14.4860 O.2   165  PRO165     -0.2715
     66  CB       -26.5620   15.0380   14.4780 C.3   165  PRO165      0.0310
     67  CG       -27.6230   15.0730   15.4530 C.3   165  PRO165      0.0237
     68  CD       -27.1470   15.8600   16.6150 C.3   165  PRO165      0.0939
     69  N        -27.1130   17.1920   12.6560 N.am  166  GLY166     -0.1941
     70  CA       -28.0500   18.0560   11.9900 C.3   166  GLY166      0.2014
     71  C        -29.3960   17.9940   12.6940 C.2   166  GLY166      0.2638
     72  O        -29.7900   16.9860   13.0630 O.2   166  GLY166     -0.2714
     73  N        -29.9940   19.1180   12.9700 N.am  167  ILE167     -0.1977
     74  CA       -31.3030   19.1320   13.5510 C.3   167  ILE167      0.1596
     75  C        -32.4010   19.5200   12.5240 C.2   167  ILE167      0.2287
     76  O        -32.3220   20.5110   11.8830 O.2   167  ILE167     -0.2864
     77  CB       -31.3650   20.0630   14.7800 C.3   167  ILE167      0.0276
     78  CG1      -30.3740   19.6020   15.8220 C.3   167  ILE167      0.0022
     79  CG2      -32.7240   20.0310   15.3660 C.3   167  ILE167      0.0022
     80  CD1      -30.2490   20.5330   16.9080 C.3   167  ILE167      0.0001
     81  N        -27.9860   26.6550    6.2250 N.3   177  GLY177     -0.1210
     82  CA       -26.9110   25.8930    6.8250 C.3   177  GLY177      0.1956
     83  C        -26.5070   24.6050    6.0830 C.2   177  GLY177      0.2613
     84  O        -27.2040   24.0860    5.2900 O.2   177  GLY177     -0.2717
     85  N        -25.3420   24.1020    6.3880 N.am  178  THR178     -0.1938
     86  CA       -24.8550   22.9010    5.7930 C.3   178  THR178      0.2028
     87  C        -25.8900   21.7500    5.8910 C.2   178  THR178      0.2643
     88  O        -26.1010   21.1070    4.9640 O.2   178  THR178     -0.2714
     89  CB       -23.5110   22.5070    6.4190 C.3   178  THR178      0.1808
     90  OG1      -22.5780   23.5670    6.2980 O.3   178  THR178     -0.2208
     91  CG2      -22.9890   21.2700    5.8340 C.3   178  THR178      0.0379
     92  N        -26.5090   21.5390    7.0490 N.am  179  THR179     -0.1936
     93  CA       -27.4380   20.4310    7.2440 C.3   179  THR179      0.2028
     94  C        -28.9020   20.8270    6.9360 C.2   179  THR179      0.2642
     95  O        -29.7740   20.0300    6.9950 O.2   179  THR179     -0.2714
     96  CB       -27.3520   19.8420    8.6800 C.3   179  THR179      0.1808
     97  OG1      -27.7230   20.7940    9.6380 O.3   179  THR179     -0.2208
     98  CG2      -25.9900   19.2870    8.9940 C.3   179  THR179      0.0379
     99  N        -29.1130   22.0860    6.6250 N.am  180  ASP180     -0.1971
    100  CA       -30.4680   22.6310    6.4910 C.3   180  ASP180      0.1709
    101  C        -31.1960   22.1000    5.2260 C.2   180  ASP180      0.2293
    102  O        -32.3610   22.3170    5.1010 O.2   180  ASP180     -0.2864
    103  CB       -30.4850   24.1670    6.4850 C.3   180  ASP180      0.1436
    104  CG       -30.3960   24.8300    7.9110 C.2   180  ASP180      0.3671
    105  OD1      -30.5480   24.1590    8.9230 O.co2 180  ASP180     -0.2456
    106  OD2      -30.1640   26.0380    7.9710 O.co2 180  ASP180     -0.2456
    107  N        -16.9740   15.6810    8.0080 N.3   273  TRP273     -0.1241
    108  CA       -17.6520   15.1390    9.1800 C.3   273  TRP273      0.1605
    109  C        -17.9260   13.5840    9.1360 C.2   273  TRP273      0.2264
    110  O        -18.1010   13.0210    8.0940 O.2   273  TRP273     -0.2867
    111  CB       -18.9630   15.9000    9.3960 C.3   273  TRP273      0.0550
    112  CG       -18.8390   17.3740    9.6070 C.ar  273  TRP273      0.0003
    113  CD1      -17.7320   18.0380    9.9020 C.ar  273  TRP273      0.0946
    114  CD2      -19.8750   18.3440    9.5100 C.ar  273  TRP273      0.0152
    115  NE1      -17.9820   19.3900   10.0050 N.ar  273  TRP273     -0.2442
    116  CE2      -19.3040   19.5900    9.7670 C.ar  273  TRP273      0.0810
    117  CE3      -21.2180   18.2820    9.2010 C.ar  273  TRP273      0.0012
    118  CZ2      -20.0390   20.7420    9.7530 C.ar  273  TRP273      0.0191
    119  CZ3      -21.9220   19.3870    9.1840 C.ar  273  TRP273      0.0001
    120  CH2      -21.3410   20.6270    9.4650 C.ar  273  TRP273      0.0015
@<TRIPOS>BOND
     1    88    87    2
     2   102   101    2
     3   101   100    1
     4    84    83    2
     5    86    87    1
     6    86    85    1
     7    86    89    1
     8    91    89    1
     9    87    92   am
    10    83    85   am
    11    83    82    1
    12    81    82    1
    13    90    89    1
    14   103   100    1
    15   103   104    1
    16   100    99    1
    17    99    94   am
    18    94    95    2
    19    94    93    1
    20    92    93    1
    21    93    96    1
    22   104   106   ar
    23   104   105   ar
    24   107   108    1
    25    21    20    2
    26   110   109    2
    27    20    19    1
    28    96    98    1
    29    96    97    1
    30    23    22    1
    31   109   108    1
    32   108   111    1
    33   119   117   ar
    34   119   120   ar
    35   117   114   ar
    36   111   112    1
    37   120   118   ar
    38    22    19    1
    39   114   112   ar
    40   114   116   ar
    41   112   113   ar
    42    19    18    1
    43   118   116   ar
    44   116   115   ar
    45   113   115   ar
    46    18    12   am
    47    13    12    2
    48    12    11    1
    49    76    75    2
    50    70    69    1
    51    70    71    1
    52    38    36    1
    53    14    11    1
    54    14    15    1
    55    11    10    1
    56    39    40    1
    57    43    40    1
    58    43    44    1
    59    75    74    1
    60    69    64   am
    61    71    73   am
    62    71    72    2
    63    16    15    1
    64     8     7    2
    65    46    44   ar
    66    46    48   ar
    67    73    74    1
    68    15    17    1
    69    36    35    1
    70    40    41    1
    71    44    45   ar
    72     7     9   am
    73     7     6    1
    74    48    49   ar
    75    74    77    1
    76    34    33    2
    77    64    65    2
    78    64    63    1
    79     6     5    1
    80    35    37    1
    81    35    32    1
    82    41    42    2
    83    45    47   ar
    84    33    32    1
    85     5     2    1
    86    49    47   ar
    87    66    63    1
    88    66    67    1
    89    63    62    1
    90    77    79    1
    91    77    78    1
    92    29    28    1
    93    32    31    1
    94     2     1    1
    95     2     3    1
    96    67    68    1
    97    31    26   am
    98    78    80    1
    99    62    68    1
   100    62    52   am
   101    53    52    2
   102    28    30    1
   103    28    25    1
   104     3     4    2
   105    26    27    2
   106    26    25    1
   107    52    51    1
   108    25    24    1
   109    54    51    1
   110    54    55    1
   111    51    50    1
   112    55    57   ar
   113    55    56   ar
   114    57    59   ar
   115    56    58   ar
   116    59    60   ar
   117    58    60   ar
   118    60    61    1
