@<TRIPOS>MOLECULE
tmp/3a9yA00.pdb
 94 88 0 0 0
SMALL
GASTEIGER

@<TRIPOS>ATOM
      1  N         13.5280  -10.6840   89.0520 N.3     8  ASN8       -0.1225
      2  CA        13.0380  -11.1830   87.7700 C.3     8  ASN8        0.1785
      3  C         12.0090  -10.2020   87.1900 C.2     8  ASN8        0.2597
      4  O         11.7180  -10.2320   85.9950 O.2     8  ASN8       -0.2718
      5  CB        12.4170  -12.5760   87.9370 C.3     8  ASN8        0.1169
      6  CG        13.4590  -13.6840   87.9450 C.2     8  ASN8        0.2627
      7  OD1       14.6280  -13.4540   88.2430 O.2     8  ASN8       -0.2716
      8  ND2       13.0300  -14.8960   87.6300 N.am    8  ASN8       -0.0877
      9  N         11.4720   -9.3290   88.0420 N.am    9  ALA9       -0.1979
     10  CA        10.4980   -8.3230   87.6150 C.3     9  ALA9        0.1597
     11  C         11.2760   -7.1650   86.9930 C.2     9  ALA9        0.2287
     12  O         10.9070   -6.6310   85.9470 O.2     9  ALA9       -0.2864
     13  CB         9.6900   -7.8350   88.8030 C.3     9  ALA9        0.0319
     14  N          6.7940  -15.2360   77.3080 N.3   104  HIS104     -0.1241
     15  CA         6.4300  -13.9250   77.8380 C.3   104  HIS104      0.1621
     16  C          5.3400  -13.3620   76.9260 C.2   104  HIS104      0.2264
     17  O          5.1960  -13.8070   75.7870 O.2   104  HIS104     -0.2867
     18  CB         7.6660  -13.0100   77.8250 C.3   104  HIS104      0.0745
     19  CG         7.4290  -11.6320   78.3730 C.ar  104  HIS104      0.0817
     20  ND1        7.1200  -10.5530   77.5750 N.ar  104  HIS104     -0.2268
     21  CD2        7.5100  -11.1500   79.6370 C.ar  104  HIS104      0.1154
     22  CE1        7.0270   -9.4650   78.3190 C.ar  104  HIS104      0.1986
     23  NE2        7.2590   -9.8010   79.5760 N.ar  104  HIS104     -0.2212
     24  N         10.4780  -16.9010   83.0620 N.3   157  ASN157     -0.1240
     25  CA        10.5040  -15.8810   84.1050 C.3   157  ASN157      0.1653
     26  C          9.7800  -16.2260   85.4100 C.2   157  ASN157      0.2266
     27  O         10.1120  -15.6760   86.4550 O.2   157  ASN157     -0.2867
     28  CB         9.9640  -14.5600   83.5560 C.3   157  ASN157      0.1155
     29  CG         8.6320  -14.7220   82.8600 C.2   157  ASN157      0.2627
     30  OD1        8.4600  -15.6210   82.0310 O.2   157  ASN157     -0.2716
     31  ND2        7.6850  -13.8460   83.1790 N.am  157  ASN157     -0.0877
     32  N         15.6050  -13.4120   80.7660 N.3   195  GLN195     -0.1245
     33  CA        15.8680  -13.8500   82.1380 C.3   195  GLN195      0.1566
     34  C         17.1720  -14.6040   82.3780 C.2   195  GLN195      0.2260
     35  O         17.4600  -14.9920   83.5110 O.2   195  GLN195     -0.2867
     36  CB        14.7110  -14.7230   82.6350 C.3   195  GLN195      0.0367
     37  CG        13.3820  -14.0030   82.8180 C.3   195  GLN195      0.0905
     38  CD        13.4040  -13.0030   83.9620 C.2   195  GLN195      0.2608
     39  OE1       14.2180  -13.1140   84.8790 O.2   195  GLN195     -0.2717
     40  NE2       12.4920  -12.0350   83.9260 N.am  195  GLN195     -0.0878
     41  N         17.5570   -7.9190   77.1410 N.3   215  VAL215     -0.1245
     42  CA        16.7510   -6.9750   77.9130 C.3   215  VAL215      0.1561
     43  C         17.5520   -6.3240   79.0380 C.2   215  VAL215      0.2260
     44  O         17.8610   -6.9590   80.0440 O.2   215  VAL215     -0.2867
     45  CB        15.5270   -7.6890   78.5210 C.3   215  VAL215      0.0252
     46  CG1       14.5910   -6.6770   79.1420 C.3   215  VAL215      0.0019
     47  CG2       14.8220   -8.5070   77.4410 C.3   215  VAL215      0.0019
     48  N         16.9840   -4.0330   81.6010 N.3   217  HIS217     -0.1226
     49  CA        16.5740   -3.9630   83.0030 C.3   217  HIS217      0.1752
     50  C         16.5140   -5.2780   83.7690 C.2   217  HIS217      0.2595
     51  O         16.1240   -5.3010   84.9370 O.2   217  HIS217     -0.2718
     52  CB        15.2630   -3.1540   83.1480 C.3   217  HIS217      0.0759
     53  CG        14.0140   -3.9010   82.7910 C.ar  217  HIS217      0.0818
     54  ND1       13.1410   -4.3840   83.7430 N.ar  217  HIS217     -0.2268
     55  CD2       13.4570   -4.1910   81.5920 C.ar  217  HIS217      0.1154
     56  CE1       12.0990   -4.9350   83.1470 C.ar  217  HIS217      0.1986
     57  NE2       12.2660   -4.8310   81.8410 N.ar  217  HIS217     -0.2212
     58  N         16.9270   -6.3680   83.1300 N.am  218  LYS218     -0.1980
     59  CA        16.9540   -7.6620   83.8000 C.3   218  LYS218      0.1596
     60  C         18.3630   -7.9430   84.3150 C.2   218  LYS218      0.2287
     61  O         18.5580   -8.8330   85.1370 O.2   218  LYS218     -0.2864
     62  CB        16.5120   -8.7820   82.8590 C.3   218  LYS218      0.0298
     63  CG        15.0890   -8.6190   82.3390 C.3   218  LYS218      0.0038
     64  CD        14.0610   -8.5690   83.4690 C.3   218  LYS218      0.0206
     65  CE        12.6640   -8.2170   82.9430 C.3   218  LYS218      0.1093
     66  NZ        12.2760   -9.2930   81.9510 N.3   218  LYS218     -0.1314
     67  N          4.5420  -12.8580   86.5550 N.3   344  ALA344     -0.1231
     68  CA         5.0360  -11.7390   85.7590 C.3   344  ALA344      0.1694
     69  C          4.3140  -10.4570   86.1570 C.2   344  ALA344      0.2593
     70  O          3.0890  -10.4500   86.3060 O.2   344  ALA344     -0.2718
     71  CB         4.8360  -12.0170   84.2670 C.3   344  ALA344      0.0304
     72  N          5.0790   -9.3800   86.3340 N.am  345  SER345     -0.1938
     73  CA         4.5290   -8.0800   86.7270 C.3   345  SER345      0.2055
     74  C          3.3530   -7.7490   85.8240 C.2   345  SER345      0.2643
     75  O          2.3020   -7.2760   86.2620 O.2   345  SER345     -0.2714
     76  CB         5.5910   -6.9950   86.5610 C.3   345  SER345      0.2130
     77  OG         6.8390   -7.4290   87.0530 O.3   345  SER345     -0.2179
     78  N          3.5770   -8.0130   84.5460 N.am  346  CYS346     -0.1967
     79  CA         2.6360   -7.7810   83.4730 C.3   346  CYS346      0.1712
     80  C          1.1920   -8.2560   83.8210 C.2   346  CYS346      0.2296
     81  O          0.2070   -7.7640   83.2600 O.2   346  CYS346     -0.2864
     82  CB         3.2330   -8.4600   82.2080 C.3   346  CYS346      0.0983
     83  SG         5.1640   -8.4400   82.1010 S.3   346  CYS346     -0.0798
     84  N          6.5120  -15.8530   93.7520 N.3   373  ARG373     -0.1245
     85  CA         7.7760  -15.9720   93.0430 C.3   373  ARG373      0.1563
     86  C          8.8490  -15.1440   93.7090 C.2   373  ARG373      0.2260
     87  O          8.7680  -13.9130   93.7450 O.2   373  ARG373     -0.2867
     88  CB         7.6500  -15.5180   91.5790 C.3   373  ARG373      0.0307
     89  CG         8.9280  -15.7590   90.7830 C.3   373  ARG373      0.0489
     90  CD         8.9080  -15.1000   89.4110 C.3   373  ARG373      0.2205
     91  NE         8.8310  -13.6460   89.5110 N.pl3 373  ARG373     -0.0865
     92  CZ         8.6550  -12.8370   88.4710 C.cat 373  ARG373      0.5346
     93  NH1        8.5480  -13.3420   87.2470 N.pl3 373  ARG373      0.1354
     94  NH2        8.5490  -11.5310   88.6560 N.pl3 373  ARG373      0.1354
@<TRIPOS>BOND
     1    17    16    2
     2    16    15    1
     3    41    42    1
     4    14    15    1
     5    47    45    1
     6    20    22   ar
     7    20    19   ar
     8    18    15    1
     9    18    19    1
    10    42    45    1
    11    42    43    1
    12    22    23   ar
    13    19    21   ar
    14    45    46    1
    15    43    44    2
    16    23    21   ar
    17    32    33    1
    18    55    57   ar
    19    55    53   ar
    20    48    49    1
    21    57    56   ar
    22    66    65    1
    23    30    29    2
    24    83    82    1
    25    33    34    1
    26    33    36    1
    27    82    79    1
    28    63    62    1
    29    63    64    1
    30    34    35    2
    31    36    37    1
    32    53    52    1
    33    53    54   ar
    34    37    38    1
    35    62    59    1
    36    29    31   am
    37    29    28    1
    38    65    64    1
    39    49    52    1
    40    49    50    1
    41    24    25    1
    42    58    50   am
    43    58    59    1
    44    56    54   ar
    45    81    80    2
    46    79    80    1
    47    79    78    1
    48    28    25    1
    49    50    51    2
    50    59    60    1
    51    40    38   am
    52    38    39    2
    53    25    26    1
    54    71    68    1
    55    60    61    2
    56    78    74   am
    57    26    27    2
    58    68    69    1
    59    68    67    1
    60    74    75    2
    61    74    73    1
    62    12    11    2
    63     4     3    2
    64    69    70    2
    65    69    72   am
    66    72    73    1
    67    76    73    1
    68    76    77    1
    69    11    10    1
    70     3     2    1
    71     3     9   am
    72    93    92    1
    73    10     9    1
    74    10    13    1
    75     8     6   am
    76     2     5    1
    77     2     1    1
    78     5     6    1
    79     6     7    2
    80    92    94    1
    81    92    91    2
    82    90    91    1
    83    90    89    1
    84    89    88    1
    85    88    85    1
    86    85    86    1
    87    85    84    1
    88    86    87    2
