@<TRIPOS>MOLECULE
tmp/3a9zA00.pdb
 102 94 0 0 0
SMALL
GASTEIGER

@<TRIPOS>ATOM
      1  N         13.8320   52.7240   24.4830 N.3    69  GLY69      -0.1210
      2  CA        13.6040   53.6560   23.3730 C.3    69  GLY69       0.1956
      3  C         13.2790   55.0300   23.8650 C.2    69  GLY69       0.2612
      4  O         13.3170   55.2910   25.1030 O.2    69  GLY69      -0.2717
      5  N         13.0250   55.9540   22.9430 N.am   70  GLY70      -0.1942
      6  CA        12.7600   57.2920   23.3310 C.3    70  GLY70       0.2014
      7  C         11.5140   57.4350   24.1880 C.2    70  GLY70       0.2639
      8  O         11.5100   58.2670   25.0460 O.2    70  GLY70      -0.2714
      9  N         10.4320   56.7280   23.8030 N.am   71  THR71      -0.1950
     10  CA         9.2080   56.7770   24.5870 C.3    71  THR71       0.1897
     11  C          9.4430   56.4510   26.0680 C.2    71  THR71       0.2313
     12  O          9.0400   57.2020   26.9300 O.2    71  THR71      -0.2863
     13  CB         8.1550   55.8170   23.9420 C.3    71  THR71       0.1794
     14  OG1        7.7950   56.3640   22.6350 O.3    71  THR71      -0.2208
     15  CG2        6.9130   55.7180   24.7870 C.3    71  THR71       0.0378
     16  N         11.5620   59.2890   27.7130 N.3    74  ASN74      -0.1240
     17  CA        10.7740   60.4710   28.0330 C.3    74  ASN74       0.1653
     18  C          9.7820   60.2700   29.1800 C.2    74  ASN74       0.2266
     19  O          9.6260   61.1530   30.0600 O.2    74  ASN74      -0.2867
     20  CB        10.0030   60.8850   26.7550 C.3    74  ASN74       0.1155
     21  CG        10.8610   61.6450   25.7880 C.2    74  ASN74       0.2627
     22  OD1       11.8510   62.2040   26.1200 O.2    74  ASN74      -0.2716
     23  ND2       10.4240   61.6640   24.5240 N.am   74  ASN74      -0.0877
     24  N          6.8020   65.9060   21.0960 N.3   104  HIS104     -0.1241
     25  CA         6.4240   64.5560   20.6740 C.3   104  HIS104      0.1621
     26  C          5.3260   64.0240   21.6120 C.2   104  HIS104      0.2264
     27  O          5.2190   64.4640   22.7070 O.2   104  HIS104     -0.2867
     28  CB         7.6350   63.6280   20.7570 C.3   104  HIS104      0.0745
     29  CG         7.4500   62.2770   20.1040 C.ar  104  HIS104      0.0817
     30  ND1        7.1420   61.1230   20.8010 N.ar  104  HIS104     -0.2268
     31  CD2        7.6390   61.8880   18.8130 C.ar  104  HIS104      0.1154
     32  CE1        7.1710   60.0840   19.9870 C.ar  104  HIS104      0.1986
     33  NE2        7.4710   60.5280   18.7720 N.ar  104  HIS104     -0.2212
     34  N         11.9370   70.0480   23.6740 N.3   153  MET153     -0.1245
     35  CA        12.6360   69.2690   22.6670 C.3   153  MET153      0.1570
     36  C         13.7680   70.0910   22.0600 C.2   153  MET153      0.2261
     37  O         13.6470   71.2820   21.8980 O.2   153  MET153     -0.2867
     38  CB        11.5950   68.7940   21.6240 C.3   153  MET153      0.0387
     39  CG        11.1390   69.9340   20.6520 C.3   153  MET153      0.0595
     40  SD         9.5310   69.4550   19.9720 S.3   153  MET153     -0.1393
     41  CE         9.8000   67.7290   19.3320 C.3   153  MET153      0.0692
     42  N         15.0440   69.6640   19.0430 N.3   155  ALA155     -0.1245
     43  CA        14.6050   69.9500   17.6410 C.3   155  ALA155      0.1562
     44  C         13.2150   69.4440   17.3970 C.2   155  ALA155      0.2260
     45  O         12.9040   68.3540   17.8410 O.2   155  ALA155     -0.2867
     46  CB        15.6080   69.2470   16.6160 C.3   155  ALA155      0.0290
     47  N         10.4060   67.6030   15.2810 N.3   157  ASN157     -0.1240
     48  CA        10.4630   66.5730   14.2510 C.3   157  ASN157      0.1653
     49  C          9.7290   66.9450   12.9470 C.2   157  ASN157      0.2266
     50  O         10.0830   66.3940   11.8830 O.2   157  ASN157     -0.2867
     51  CB         9.8840   65.2460   14.7980 C.3   157  ASN157      0.1155
     52  CG         8.4900   65.4310   15.4400 C.2   157  ASN157      0.2627
     53  OD1        8.2920   66.3540   16.2330 O.2   157  ASN157     -0.2716
     54  ND2        7.5590   64.5750   15.0950 N.am  157  ASN157     -0.0877
     55  N         14.3650   66.5270   24.9950 N.3   192  ASP192     -0.1239
     56  CA        14.1640   65.3420   24.1400 C.3   192  ASP192      0.1674
     57  C         15.0350   65.6750   22.8660 C.2   192  ASP192      0.2266
     58  O         14.6360   66.5080   22.0790 O.2   192  ASP192     -0.2867
     59  CB        12.7110   65.2710   23.7010 C.3   192  ASP192      0.1410
     60  CG        12.4360   64.0990   22.7860 C.2   192  ASP192      0.3668
     61  OD1       13.3940   63.4940   22.2890 O.co2 192  ASP192     -0.2456
     62  OD2       11.2630   63.7900   22.5860 O.co2 192  ASP192     -0.2456
     63  N         15.9010   63.5990   20.4890 N.3   194  ALA194     -0.1231
     64  CA        15.7020   62.5680   19.4990 C.3   194  ALA194      0.1694
     65  C         16.1080   62.9380   18.0660 C.2   194  ALA194      0.2591
     66  O         16.7610   62.1410   17.3750 O.2   194  ALA194     -0.2718
     67  CB        14.2240   62.1350   19.5050 C.3   194  ALA194      0.0304
     68  N         15.6690   64.1060   17.6070 N.am  195  GLN195     -0.1979
     69  CA        15.8880   64.4940   16.2240 C.3   195  GLN195      0.1601
     70  C         17.1570   65.2140   16.0110 C.2   195  GLN195      0.2287
     71  O         17.4850   65.4950   14.8500 O.2   195  GLN195     -0.2864
     72  CB        14.7270   65.3580   15.7240 C.3   195  GLN195      0.0394
     73  CG        13.4010   64.6470   15.6330 C.3   195  GLN195      0.0908
     74  CD        13.3610   63.6910   14.4350 C.2   195  GLN195      0.2608
     75  OE1       14.2290   63.7570   13.5710 O.2   195  GLN195     -0.2717
     76  NE2       12.4200   62.7940   14.4240 N.am  195  GLN195     -0.0878
     77  N         17.6020   58.5370   21.1490 N.3   215  VAL215     -0.1245
     78  CA        16.7790   57.5780   20.4160 C.3   215  VAL215      0.1561
     79  C         17.5550   56.9470   19.2940 C.2   215  VAL215      0.2260
     80  O         17.8260   57.6050   18.2840 O.2   215  VAL215     -0.2867
     81  CB        15.5520   58.3210   19.8230 C.3   215  VAL215      0.0252
     82  CG1       14.6200   57.3020   19.2350 C.3   215  VAL215      0.0019
     83  CG2       14.8520   59.1140   20.9870 C.3   215  VAL215      0.0019
     84  N         17.0400   54.7900   16.8060 N.3   217  HIS217     -0.1226
     85  CA        16.5990   54.6300   15.4380 C.3   217  HIS217      0.1752
     86  C         16.5320   55.9120   14.6430 C.2   217  HIS217      0.2595
     87  O         16.1920   55.8410   13.4450 O.2   217  HIS217     -0.2718
     88  CB        15.3100   53.7630   15.3440 C.3   217  HIS217      0.0759
     89  CG        14.0190   54.4810   15.6430 C.ar  217  HIS217      0.0818
     90  ND1       13.1220   54.8860   14.6650 N.ar  217  HIS217     -0.2268
     91  CD2       13.4470   54.8170   16.8280 C.ar  217  HIS217      0.1154
     92  CE1       12.0720   55.4450   15.2350 C.ar  217  HIS217      0.1986
     93  NE2       12.2370   55.4210   16.5560 N.ar  217  HIS217     -0.2212
     94  N         16.9400   57.0150   15.2260 N.am  218  LYS218     -0.1980
     95  CA        16.9720   58.3010   14.5070 C.3   218  LYS218      0.1596
     96  C         18.3990   58.5240   14.0560 C.2   218  LYS218      0.2287
     97  O         18.6430   59.4340   13.2610 O.2   218  LYS218     -0.2864
     98  CB        16.5030   59.4470   15.4360 C.3   218  LYS218      0.0298
     99  CG        15.0990   59.2560   15.9700 C.3   218  LYS218      0.0038
    100  CD        14.0310   59.2210   14.8980 C.3   218  LYS218      0.0206
    101  CE        12.6110   58.9000   15.4530 C.3   218  LYS218      0.1093
    102  NZ        12.2560   59.9210   16.3500 N.3   218  LYS218     -0.1314
@<TRIPOS>BOND
     1    50    49    2
     2    49    48    1
     3    97    96    2
     4    87    86    2
     5    75    74    2
     6    96    95    1
     7    48    51    1
     8    48    47    1
     9    76    74   am
    10    74    73    1
    11    95    94    1
    12    95    98    1
    13    86    94   am
    14    86    85    1
    15    90    92   ar
    16    90    89   ar
    17    51    52    1
    18    71    70    2
    19   100   101    1
    20   100    99    1
    21    54    52   am
    22    92    93   ar
    23    88    85    1
    24    88    89    1
    25    98    99    1
    26    85    84    1
    27    52    53    2
    28   101   102    1
    29    73    72    1
    30    89    91   ar
    31    72    69    1
    32    70    69    1
    33    69    68    1
    34    93    91   ar
    35    46    43    1
    36    66    65    2
    37    44    43    1
    38    44    45    2
    39    68    65   am
    40    43    42    1
    41    65    64    1
    42    80    79    2
    43    33    31   ar
    44    33    32   ar
    45    31    29   ar
    46    82    81    1
    47    79    78    1
    48    41    40    1
    49    64    67    1
    50    64    63    1
    51    81    78    1
    52    81    83    1
    53    40    39    1
    54    32    30   ar
    55    29    28    1
    56    29    30   ar
    57    78    77    1
    58    39    38    1
    59    25    28    1
    60    25    24    1
    61    25    26    1
    62    26    27    2
    63    38    35    1
    64    37    36    2
    65    36    35    1
    66    58    57    2
    67    61    60   ar
    68    62    60   ar
    69    14    13    1
    70    35    34    1
    71    60    59    1
    72    57    56    1
    73     5     6    1
    74     5     3   am
    75     6     7    1
    76     2     3    1
    77     2     1    1
    78    59    56    1
    79     9     7   am
    80     9    10    1
    81     3     4    2
    82    13    10    1
    83    13    15    1
    84    56    55    1
    85     7     8    2
    86    23    21   am
    87    10    11    1
    88    21    22    2
    89    21    20    1
    90    11    12    2
    91    20    17    1
    92    16    17    1
    93    17    18    1
    94    18    19    2
