@<TRIPOS>MOLECULE
tmp/3aaqA00.pdb
 190 180 0 0 0
SMALL
GASTEIGER

@<TRIPOS>ATOM
      1  N         27.5900   41.4730   19.5090 N.3     9  ASP9       -0.1239
      2  CA        27.0200   40.4250   20.3200 C.3     9  ASP9        0.1674
      3  C         26.8450   40.9930   21.7300 C.2     9  ASP9        0.2266
      4  O         27.8190   41.1490   22.4730 O.2     9  ASP9       -0.2867
      5  CB        27.9320   39.1740   20.2980 C.3     9  ASP9        0.1410
      6  CG        27.6300   38.1790   21.4340 C.2     9  ASP9        0.3668
      7  OD1       26.5160   38.1810   21.9850 O.co2   9  ASP9       -0.2456
      8  OD2       28.5240   37.3750   21.7730 O.co2   9  ASP9       -0.2456
      9  N         25.8030   40.1020   24.9110 N.3    11  GLY11      -0.1210
     10  CA        25.5660   38.9170   25.7000 C.3    11  GLY11       0.1956
     11  C         25.2570   39.2340   27.1470 C.2    11  GLY11       0.2613
     12  O         25.2450   40.4060   27.5700 O.2    11  GLY11      -0.2717
     13  N         24.9910   38.1840   27.9150 N.am   12  SER12      -0.1938
     14  CA        24.6310   38.3700   29.3200 C.3    12  SER12       0.2055
     15  C         25.7930   38.8780   30.1980 C.2    12  SER12       0.2643
     16  O         25.5670   39.5720   31.2010 O.2    12  SER12      -0.2714
     17  CB        24.0080   37.0860   29.8850 C.3    12  SER12       0.2130
     18  OG        24.9370   36.0560   29.7550 O.3    12  SER12      -0.2179
     19  N         27.0330   38.5950   29.8240 N.am   13  THR13      -0.1950
     20  CA        28.1450   38.9980   30.6830 C.3    13  THR13       0.1897
     21  C         28.9970   40.1090   30.0950 C.2    13  THR13       0.2313
     22  O         29.8580   40.6580   30.7820 O.2    13  THR13      -0.2863
     23  CB        29.0630   37.7870   31.0960 C.3    13  THR13       0.1794
     24  OG1       29.6720   37.2370   29.9330 O.3    13  THR13      -0.2208
     25  CG2       28.2640   36.6870   31.8210 C.3    13  THR13       0.0378
     26  N         30.4180   42.4010   22.6810 N.3    16  ARG16      -0.1245
     27  CA        31.5680   42.1100   21.8300 C.3    16  ARG16       0.1563
     28  C         31.2660   42.6240   20.4290 C.2    16  ARG16       0.2260
     29  O         30.3420   42.1280   19.7340 O.2    16  ARG16      -0.2867
     30  CB        31.7930   40.5960   21.7540 C.3    16  ARG16       0.0307
     31  CG        32.4480   39.9240   22.9400 C.3    16  ARG16       0.0489
     32  CD        31.5900   39.7250   24.2240 C.3    16  ARG16       0.2205
     33  NE        30.4940   38.7870   24.0900 N.pl3  16  ARG16      -0.0865
     34  CZ        29.8440   38.1860   25.0880 C.cat  16  ARG16       0.5346
     35  NH1       30.1740   38.3360   26.3680 N.pl3  16  ARG16       0.1354
     36  NH2       28.8620   37.3870   24.7860 N.pl3  16  ARG16       0.1354
     37  N         21.3330   38.8420   23.2700 N.3    78  THR78      -0.1203
     38  CA        20.9470   37.4540   23.4340 C.3    78  THR78       0.1994
     39  C         20.3220   37.2110   24.8060 C.2    78  THR78       0.2617
     40  O         19.5440   38.0060   25.2330 O.2    78  THR78      -0.2717
     41  CB        22.1170   36.4780   23.0870 C.3    78  THR78       0.1784
     42  OG1       23.2030   36.7150   23.9760 O.3    78  THR78      -0.2211
     43  CG2       22.6200   36.6870   21.5960 C.3    78  THR78       0.0376
     44  N         20.6700   36.1280   25.4930 N.am   79  ALA79      -0.1979
     45  CA        19.8070   35.6370   26.5810 C.3    79  ALA79       0.1597
     46  C         19.6630   36.6130   27.7310 C.2    79  ALA79       0.2287
     47  O         18.5980   36.6720   28.3360 O.2    79  ALA79      -0.2864
     48  CB        20.2410   34.2550   27.0660 C.3    79  ALA79       0.0319
     49  N         24.7560   24.5720   21.2540 N.3   142  ASP142     -0.1225
     50  CA        25.4620   25.6680   21.9350 C.3   142  ASP142      0.1805
     51  C         25.1140   25.5690   23.4140 C.2   142  ASP142      0.2598
     52  O         23.9470   25.6230   23.7660 O.2   142  ASP142     -0.2718
     53  CB        25.0270   27.0250   21.3640 C.3   142  ASP142      0.1424
     54  CG        25.6760   28.2090   22.0750 C.2   142  ASP142      0.3668
     55  OD1       26.6390   28.0350   22.8530 O.co2 142  ASP142     -0.2456
     56  OD2       25.2350   29.3370   21.8360 O.co2 142  ASP142     -0.2456
     57  N         26.1090   25.3910   24.2810 N.am  143  MET143     -0.1965
     58  CA        25.8500   25.3250   25.7360 C.3   143  MET143      0.1736
     59  C         26.1870   26.7110   26.3290 C.2   143  MET143      0.2617
     60  O         27.3450   26.9460   26.6600 O.2   143  MET143     -0.2715
     61  CB        26.7540   24.2560   26.3720 C.3   143  MET143      0.0427
     62  CG        26.8990   22.9800   25.5390 C.3   143  MET143      0.0599
     63  SD        25.2710   22.2460   25.5300 S.3   143  MET143     -0.1393
     64  CE        25.5960   20.5500   24.9860 C.3   143  MET143      0.0692
     65  N         25.2210   27.6270   26.4190 N.am  144  GLY144     -0.1940
     66  CA        25.5490   29.0220   26.8290 C.3   144  GLY144      0.2014
     67  C         25.3630   29.2020   28.3310 C.2   144  GLY144      0.2639
     68  O         25.0260   28.2450   29.0100 O.2   144  GLY144     -0.2714
     69  N         25.5600   30.4240   28.8480 N.am  145  GLY145     -0.1939
     70  CA        25.3660   30.6950   30.2690 C.3   145  GLY145      0.2014
     71  C         23.8970   30.7260   30.6950 C.2   145  GLY145      0.2638
     72  O         23.5470   30.2710   31.7810 O.2   145  GLY145     -0.2714
     73  N         23.0230   31.2460   29.8370 N.am  146  ALA146     -0.1977
     74  CA        21.6010   31.3780   30.1980 C.3   146  ALA146      0.1597
     75  C         20.6670   30.4810   29.3770 C.2   146  ALA146      0.2287
     76  O         19.6720   29.9520   29.8930 O.2   146  ALA146     -0.2864
     77  CB        21.1590   32.8480   30.1470 C.3   146  ALA146      0.0319
     78  N         24.0860   27.1150   31.5630 N.3   187  GLN187     -0.1231
     79  CA        24.7580   26.5310   32.7260 C.3   187  GLN187      0.1698
     80  C         24.6690   27.4240   33.9710 C.2   187  GLN187      0.2592
     81  O         24.4650   26.9370   35.0800 O.2   187  GLN187     -0.2718
     82  CB        26.2000   26.1090   32.4130 C.3   187  GLN187      0.0381
     83  CG        27.2000   27.2500   32.2820 C.3   187  GLN187      0.0905
     84  CD        28.6550   26.8000   32.5510 C.2   187  GLN187      0.2608
     85  OE1       29.2940   27.2030   33.5660 O.2   187  GLN187     -0.2717
     86  NE2       29.1800   25.9730   31.6550 N.am  187  GLN187     -0.0878
     87  N         24.7860   28.7310   33.7830 N.am  188  THR188     -0.1953
     88  CA        24.6780   29.6550   34.9150 C.3   188  THR188      0.1897
     89  C         23.2600   29.6420   35.5350 C.2   188  THR188      0.2313
     90  O         23.1240   29.4310   36.7490 O.2   188  THR188     -0.2863
     91  CB        25.1590   31.0770   34.5440 C.3   188  THR188      0.1794
     92  OG1       26.5100   30.9850   34.0960 O.3   188  THR188     -0.2208
     93  CG2       25.0950   32.0240   35.7510 C.3   188  THR188      0.0378
     94  N         30.4710   26.6090   23.1800 N.3   254  GLY254     -0.1210
     95  CA        30.1070   27.1630   24.4850 C.3   254  GLY254      0.1956
     96  C         30.8050   26.4440   25.6030 C.2   254  GLY254      0.2612
     97  O         31.9550   26.0590   25.4640 O.2   254  GLY254     -0.2717
     98  N         30.1020   26.2370   26.7060 N.am  255  GLY255     -0.1956
     99  CA        30.7260   25.8240   27.9570 C.3   255  GLY255      0.1869
    100  C         31.4320   24.4670   27.9540 C.2   255  GLY255      0.2309
    101  O         32.4190   24.2840   28.6850 O.2   255  GLY255     -0.2863
    102  N         35.0400   24.7510   27.0750 N.3   258  ASN258     -0.1225
    103  CA        35.8510   25.2130   28.2060 C.3   258  ASN258      0.1785
    104  C         36.1410   24.1380   29.2250 C.2   258  ASN258      0.2597
    105  O         37.2830   23.9760   29.6440 O.2   258  ASN258     -0.2718
    106  CB        35.1800   26.3980   28.8980 C.3   258  ASN258      0.1169
    107  CG        34.9270   27.5350   27.9560 C.2   258  ASN258      0.2627
    108  OD1       33.7840   27.9000   27.7120 O.2   258  ASN258     -0.2716
    109  ND2       35.9930   28.1110   27.4130 N.am  258  ASN258     -0.0877
    110  N         35.1170   23.3960   29.6390 N.am  259  LEU259     -0.1980
    111  CA        35.3110   22.3590   30.6450 C.3   259  LEU259      0.1596
    112  C         36.2490   21.2560   30.1070 C.2   259  LEU259      0.2287
    113  O         37.1160   20.7740   30.8230 O.2   259  LEU259     -0.2864
    114  CB        33.9670   21.7700   31.1090 C.3   259  LEU259      0.0297
    115  CG        33.9830   20.4510   31.8920 C.3   259  LEU259      0.0022
    116  CD1       32.7900   20.2700   32.8040 C.3   259  LEU259      0.0001
    117  CD2       34.0430   19.3000   30.9320 C.3   259  LEU259      0.0001
    118  N         38.5240   21.5480   28.1370 N.3   261  SER261     -0.1202
    119  CA        39.8600   22.1130   27.9920 C.3   261  SER261      0.2020
    120  C         40.5690   22.3480   29.3240 C.2   261  SER261      0.2619
    121  O         41.7640   22.6490   29.3500 O.2   261  SER261     -0.2717
    122  CB        39.7970   23.4050   27.1740 C.3   261  SER261      0.2103
    123  OG        39.5880   23.1020   25.7930 O.3   261  SER261     -0.2182
    124  N         39.8310   22.2130   30.4230 N.am  262  SER262     -0.1951
    125  CA        40.3960   22.2250   31.7690 C.3   262  SER262      0.1924
    126  C         41.4920   21.1680   31.9570 C.2   262  SER262      0.2314
    127  O         41.5350   20.1650   31.2480 O.2   262  SER262     -0.2863
    128  CB        39.2840   21.9540   32.7780 C.3   262  SER262      0.2116
    129  OG        39.7910   21.2840   33.9270 O.3   262  SER262     -0.2180
    130  N         42.1730   27.6230   39.0170 N.3   300  ASP300     -0.1239
    131  CA        40.9380   27.2880   38.2840 C.3   300  ASP300      0.1674
    132  C         39.6770   27.6800   39.0720 C.2   300  ASP300      0.2266
    133  O         39.2260   26.9500   39.9550 O.2   300  ASP300     -0.2867
    134  CB        40.9350   25.7840   37.9800 C.3   300  ASP300      0.1410
    135  CG        39.9900   25.3950   36.8440 C.2   300  ASP300      0.3668
    136  OD1       39.0880   26.1770   36.4630 O.co2 300  ASP300     -0.2456
    137  OD2       40.1630   24.2690   36.3320 O.co2 300  ASP300     -0.2456
    138  N         36.6580   27.7280   38.1570 N.3   302  TYR302     -0.1241
    139  CA        35.5060   27.0060   37.7170 C.3   302  TYR302      0.1605
    140  C         35.4970   25.5860   38.2340 C.2   302  TYR302      0.2264
    141  O         34.5370   24.9240   38.1300 O.2   302  TYR302     -0.2867
    142  CB        35.4440   27.0180   36.2100 C.3   302  TYR302      0.0534
    143  CG        34.7050   28.1910   35.6160 C.ar  302  TYR302     -0.0201
    144  CD1       33.3350   28.1880   35.5300 C.ar  302  TYR302     -0.0009
    145  CD2       35.3780   29.2940   35.1450 C.ar  302  TYR302     -0.0009
    146  CE1       32.6460   29.2420   34.9780 C.ar  302  TYR302      0.0417
    147  CE2       34.6930   30.3700   34.5890 C.ar  302  TYR302      0.0417
    148  CZ        33.3260   30.3340   34.5100 C.ar  302  TYR302      0.1957
    149  OH        32.6300   31.3710   33.9740 O.3   302  TYR302     -0.2866
    150  N         32.7680   21.5010   38.4400 N.3   306  TYR306     -0.1241
    151  CA        32.9960   20.4730   37.4060 C.3   306  TYR306      0.1605
    152  C         32.1770   19.2120   37.5940 C.2   306  TYR306      0.2264
    153  O         31.8250   18.5410   36.6190 O.2   306  TYR306     -0.2867
    154  CB        34.4800   20.1410   37.2800 C.3   306  TYR306      0.0534
    155  CG        35.3080   21.2290   36.6330 C.ar  306  TYR306     -0.0201
    156  CD1       34.7250   22.2040   35.8180 C.ar  306  TYR306     -0.0009
    157  CD2       36.6790   21.2590   36.8120 C.ar  306  TYR306     -0.0009
    158  CE1       35.5050   23.1870   35.2090 C.ar  306  TYR306      0.0417
    159  CE2       37.4560   22.2250   36.2260 C.ar  306  TYR306      0.0417
    160  CZ        36.8800   23.1860   35.4300 C.ar  306  TYR306      0.1957
    161  OH        37.6970   24.1380   34.8700 O.3   306  TYR306     -0.2866
    162  N         28.6680   20.3530   36.3210 N.3   309  LEU309     -0.1245
    163  CA        28.7090   20.5850   34.8820 C.3   309  LEU309      0.1561
    164  C         28.7850   19.3030   34.0510 C.2   309  LEU309      0.2260
    165  O         28.0780   19.1670   33.0490 O.2   309  LEU309     -0.2867
    166  CB        29.8530   21.5330   34.5030 C.3   309  LEU309      0.0270
    167  CG        29.7560   23.0020   34.9420 C.3   309  LEU309      0.0019
    168  CD1       30.9470   23.8480   34.4510 C.3   309  LEU309      0.0001
    169  CD2       28.4230   23.6220   34.4860 C.3   309  LEU309      0.0001
    170  N         38.3080   26.3170   22.7810 N.3   334  PRO334     -0.2116
    171  CA        38.2300   27.7570   23.1140 C.3   334  PRO334      0.1372
    172  C         39.2500   28.6240   22.3490 C.2   334  PRO334      0.2244
    173  O         38.9110   29.7240   21.9140 O.2   334  PRO334     -0.2868
    174  CB        38.5320   27.8060   24.6210 C.3   334  PRO334      0.0268
    175  CG        38.4670   26.4150   25.1140 C.3   334  PRO334      0.0207
    176  CD        38.5590   25.4720   23.9620 C.3   334  PRO334      0.0892
    177  N         29.4850   32.7890   16.9660 N.3   340  TRP340     -0.1241
    178  CA        28.1640   32.7970   16.3390 C.3   340  TRP340      0.1605
    179  C         27.8880   33.9880   15.4130 C.2   340  TRP340      0.2264
    180  O         27.0970   33.8620   14.4740 O.2   340  TRP340     -0.2867
    181  CB        27.0450   32.6260   17.3710 C.3   340  TRP340      0.0550
    182  CG        26.7950   33.8060   18.2540 C.ar  340  TRP340      0.0003
    183  CD1       27.3160   34.0100   19.4930 C.ar  340  TRP340      0.0946
    184  CD2       25.9680   34.9470   17.9740 C.ar  340  TRP340      0.0152
    185  NE1       26.8730   35.2070   20.0120 N.ar  340  TRP340     -0.2442
    186  CE2       26.0320   35.8000   19.1080 C.ar  340  TRP340      0.0810
    187  CE3       25.1800   35.3290   16.8920 C.ar  340  TRP340      0.0012
    188  CZ2       25.3450   37.0240   19.1770 C.ar  340  TRP340      0.0191
    189  CZ3       24.5040   36.5380   16.9570 C.ar  340  TRP340      0.0001
    190  CH2       24.5780   37.3640   18.1000 C.ar  340  TRP340      0.0015
@<TRIPOS>BOND
     1   180   179    2
     2   179   178    1
     3   178   177    1
     4   178   181    1
     5   187   189   ar
     6   187   184   ar
     7   189   190   ar
     8   181   182    1
     9   184   182   ar
    10   184   186   ar
    11   190   188   ar
    12   182   183   ar
    13   186   188   ar
    14   186   185   ar
    15   183   185   ar
    16     1     2    1
    17    29    28    2
    18     5     2    1
    19     5     6    1
    20     2     3    1
    21    28    27    1
    22    49    50    1
    23    53    50    1
    24    53    54    1
    25     6     8   ar
    26     6     7   ar
    27    43    41    1
    28     3     4    2
    29    30    27    1
    30    30    31    1
    31    27    26    1
    32    56    54   ar
    33   173   172    2
    34    50    51    1
    35    54    55   ar
    36   172   171    1
    37   170   171    1
    38   170   176    1
    39    31    32    1
    40    41    38    1
    41    41    42    1
    42   171   174    1
    43    94    95    1
    44    37    38    1
    45    51    52    2
    46    51    57   am
    47    38    39    1
    48   176   175    1
    49    33    32    1
    50    33    34    2
    51    57    58    1
    52    95    96    1
    53   174   175    1
    54    36    34    1
    55    39    40    2
    56    39    44   am
    57     9    10    1
    58    64    63    1
    59    34    35    1
    60    97    96    2
    61    44    45    1
    62    63    62    1
    63    62    61    1
    64    96    98   am
    65    10    11    1
    66    58    59    1
    67    58    61    1
    68   123   122    1
    69    59    65   am
    70    59    60    2
    71    65    66    1
    72    45    48    1
    73    45    46    1
    74    98    99    1
    75    66    67    1
    76   102   103    1
    77    11    12    2
    78    11    13   am
    79   122   119    1
    80   109   107   am
    81   108   107    2
    82    46    47    2
    83    13    14    1
    84   100    99    1
    85   100   101    2
    86   107   106    1
    87   119   118    1
    88   119   120    1
    89   103   106    1
    90   103   104    1
    91    67    69   am
    92    67    68    2
    93    69    70    1
    94   104   110   am
    95   104   105    2
    96    14    17    1
    97    14    15    1
    98   120   121    2
    99   120   124   am
   100    75    76    2
   101    75    74    1
   102   110   111    1
   103    18    17    1
   104    19    15   am
   105    19    20    1
   106    73    74    1
   107    73    71   am
   108    24    23    1
   109    21    20    1
   110    21    22    2
   111   112   111    1
   112   112   113    2
   113    77    74    1
   114    15    16    2
   115    70    71    1
   116   124   125    1
   117   111   114    1
   118    20    23    1
   119    71    72    2
   120   117   115    1
   121    23    25    1
   122   114   115    1
   123   127   126    2
   124    78    79    1
   125    86    84   am
   126   125   126    1
   127   125   128    1
   128   115   116    1
   129    83    82    1
   130    83    84    1
   131    82    79    1
   132    84    85    2
   133    79    80    1
   134   128   129    1
   135   165   164    2
   136    87    80   am
   137    87    88    1
   138    80    81    2
   139   149   148    1
   140   164   163    1
   141    92    91    1
   142   168   167    1
   143   169   167    1
   144   166   163    1
   145   166   167    1
   146   148   147   ar
   147   148   146   ar
   148    91    88    1
   149    91    93    1
   150   147   145   ar
   151   161   160    1
   152   163   162    1
   153    88    89    1
   154   146   144   ar
   155   145   143   ar
   156   158   160   ar
   157   158   156   ar
   158   160   159   ar
   159   144   143   ar
   160    89    90    2
   161   143   142    1
   162   156   155   ar
   163   142   139    1
   164   159   157   ar
   165   137   135   ar
   166   136   135   ar
   167   153   152    2
   168   155   157   ar
   169   155   154    1
   170   135   134    1
   171   154   151    1
   172   151   152    1
   173   151   150    1
   174   139   138    1
   175   139   140    1
   176   134   131    1
   177   141   140    2
   178   131   130    1
   179   131   132    1
   180   132   133    2
