@<TRIPOS>MOLECULE
tmp/3aasA00.pdb
 131 132 0 0 0
SMALL
GASTEIGER

@<TRIPOS>ATOM
      1  N          6.9720   15.5020   24.0090 N.3    40  HIS40      -0.1241
      2  CA         6.0920   16.6690   23.9640 C.3    40  HIS40       0.1621
      3  C          4.9700   16.6210   25.0060 C.2    40  HIS40       0.2264
      4  O          4.1940   17.5700   25.1410 O.2    40  HIS40      -0.2867
      5  CB         5.5490   16.9140   22.5380 C.3    40  HIS40       0.0745
      6  CG         4.3500   16.0970   22.1640 C.ar   40  HIS40       0.0817
      7  ND1        4.4460   14.8710   21.5430 N.ar   40  HIS40      -0.2268
      8  CD2        3.0270   16.3730   22.2470 C.ar   40  HIS40       0.1154
      9  CE1        3.2340   14.4280   21.2540 C.ar   40  HIS40       0.1986
     10  NE2        2.3550   15.3220   21.6700 N.ar   40  HIS40      -0.2212
     11  N         -7.4930    6.6710   13.1030 N.3   171  ASP171     -0.1225
     12  CA        -6.2380    7.3150   13.4680 C.3   171  ASP171      0.1805
     13  C         -6.1750    7.5930   14.9680 C.2   171  ASP171      0.2598
     14  O         -7.1620    7.4190   15.6840 O.2   171  ASP171     -0.2718
     15  CB        -6.1530    8.6280   12.6760 C.3   171  ASP171      0.1424
     16  CG        -4.7820    9.2700   12.7110 C.2   171  ASP171      0.3668
     17  OD1       -3.7980    8.6150   13.1100 O.co2 171  ASP171     -0.2456
     18  OD2       -4.6980   10.4500   12.3050 O.co2 171  ASP171     -0.2456
     19  N         -4.9980    7.9850   15.4470 N.am  172  SER172     -0.1938
     20  CA        -4.8450    8.3530   16.8490 C.3   172  SER172      0.2055
     21  C         -5.1910    9.8410   16.8260 C.2   172  SER172      0.2643
     22  O         -5.3670   10.4090   15.7470 O.2   172  SER172     -0.2714
     23  CB        -3.4050    8.1350   17.3170 C.3   172  SER172      0.2130
     24  OG        -2.4910    8.7850   16.4560 O.3   172  SER172     -0.2179
     25  N         -5.2880   10.4800   17.9870 N.am  173  CYS173     -0.1953
     26  CA        -5.6500   11.8960   18.0110 C.3   173  CYS173      0.1843
     27  C         -5.2380   12.5680   19.3180 C.2   173  CYS173      0.2625
     28  O         -4.6840   11.9220   20.2060 O.2   173  CYS173     -0.2714
     29  CB        -7.1630   12.0160   17.8130 C.3   173  CYS173      0.0997
     30  SG        -7.7600   13.6520   17.2870 S.3   173  CYS173     -0.0797
     31  N         -5.5100   13.8670   19.4300 N.am  174  GLN174     -0.1977
     32  CA        -5.1780   14.6200   20.6380 C.3   174  GLN174      0.1601
     33  C         -5.6350   13.8550   21.8770 C.2   174  GLN174      0.2287
     34  O         -6.7920   13.4530   21.9770 O.2   174  GLN174     -0.2864
     35  CB        -5.8450   16.0010   20.5860 C.3   174  GLN174      0.0394
     36  CG        -5.7500   16.8110   21.8740 C.3   174  GLN174      0.0908
     37  CD        -6.1070   18.2780   21.6730 C.2   174  GLN174      0.2608
     38  OE1       -7.0790   18.6060   20.9900 O.2   174  GLN174     -0.2717
     39  NE2       -5.3230   19.1680   22.2770 N.am  174  GLN174     -0.0878
     40  N         -1.6510   11.0850   22.6900 N.3   177  SER177     -0.1217
     41  CA        -0.2460   11.4770   22.7120 C.3   177  SER177      0.1889
     42  C          0.5610   10.7560   23.7880 C.2   177  SER177      0.2288
     43  O          0.1410   10.6870   24.9390 O.2   177  SER177     -0.2866
     44  CB        -0.1450   12.9850   22.9510 C.3   177  SER177      0.2089
     45  OG        -1.1480   13.6800   22.2280 O.3   177  SER177     -0.2183
     46  N          2.7650    7.5050   20.1980 N.3   191  VAL191     -0.1231
     47  CA         1.8780    8.4560   19.5210 C.3   191  VAL191      0.1692
     48  C          2.5600    9.8230   19.5910 C.2   191  VAL191      0.2593
     49  O          2.6970   10.4020   20.6740 O.2   191  VAL191     -0.2718
     50  CB         0.4970    8.5050   20.2140 C.3   191  VAL191      0.0266
     51  CG1       -0.4460    9.4190   19.4440 C.3   191  VAL191      0.0020
     52  CG2       -0.0870    7.0950   20.2920 C.3   191  VAL191      0.0020
     53  N          2.9790   10.3360   18.4340 N.am  192  SER192     -0.1938
     54  CA         3.7170   11.5990   18.3780 C.3   192  SER192      0.2055
     55  C          3.0240   12.7740   17.6840 C.2   192  SER192      0.2643
     56  O          2.7830   13.8020   18.3100 O.2   192  SER192     -0.2714
     57  CB         5.0820   11.3420   17.7270 C.3   192  SER192      0.2130
     58  OG         5.9330   12.4760   17.7920 O.3   192  SER192     -0.2179
     59  N          2.7260   12.6430   16.3930 N.am  193  TRP193     -0.1959
     60  CA         2.0660   13.7360   15.6850 C.3   193  TRP193      0.1771
     61  C          1.3530   13.3340   14.4040 C.2   193  TRP193      0.2620
     62  O          1.1940   12.1540   14.1040 O.2   193  TRP193     -0.2715
     63  CB         3.0630   14.8630   15.3680 C.3   193  TRP193      0.0590
     64  CG         4.2100   14.4900   14.4510 C.ar  193  TRP193      0.0006
     65  CD1        5.3410   13.8010   14.7900 C.ar  193  TRP193      0.0946
     66  CD2        4.3530   14.8340   13.0610 C.ar  193  TRP193      0.0152
     67  NE1        6.1810   13.7000   13.7040 N.ar  193  TRP193     -0.2442
     68  CE2        5.6000   14.3240   12.6300 C.ar  193  TRP193      0.0810
     69  CE3        3.5500   15.5230   12.1410 C.ar  193  TRP193      0.0012
     70  CZ2        6.0650   14.4820   11.3180 C.ar  193  TRP193      0.0191
     71  CZ3        4.0130   15.6790   10.8320 C.ar  193  TRP193      0.0001
     72  CH2        5.2610   15.1600   10.4360 C.ar  193  TRP193      0.0015
     73  N          0.9190   14.3450   13.6590 N.am  194  GLY194     -0.1940
     74  CA         0.2270   14.1250   12.4040 C.3   194  GLY194      0.2014
     75  C         -0.3860   15.4400   11.9650 C.2   194  GLY194      0.2640
     76  O          0.0110   16.4990   12.4480 O.2   194  GLY194     -0.2714
     77  N         -1.3420   15.3900   11.0500 N.am  195  SER195     -0.1935
     78  CA        -1.9920   16.6100   10.5980 C.3   195  SER195      0.2055
     79  C         -3.4820   16.4180   10.7770 C.2   195  SER195      0.2644
     80  O         -4.1570   15.9160    9.8820 O.2   195  SER195     -0.2714
     81  CB        -1.6810   16.8850    9.1260 C.3   195  SER195      0.2130
     82  OG        -2.3960   18.0240    8.6770 O.3   195  SER195     -0.2179
     83  N         -3.9980   16.8120   11.9300 N.am  196  GLY196     -0.1939
     84  CA        -5.4140   16.6220   12.1650 C.3   196  GLY196      0.2014
     85  C         -5.5930   15.1890   12.6110 C.2   196  GLY196      0.2639
     86  O         -4.6330   14.5430   13.0380 O.2   196  GLY196     -0.2714
     87  N         -6.8170   14.6830   12.5200 N.am  197  CYS197     -0.1967
     88  CA        -7.0820   13.3130   12.9210 C.3   197  CYS197      0.1712
     89  C         -7.9590   12.5920   11.9200 C.2   197  CYS197      0.2296
     90  O         -9.0150   13.0930   11.5340 O.2   197  CYS197     -0.2864
     91  CB        -7.7480   13.2880   14.2930 C.3   197  CYS197      0.0983
     92  SG        -6.7020   14.0070   15.5950 S.3   197  CYS197     -0.0798
     93  N         -3.1870   11.7990    5.4000 N.3   202  LYS202     -0.1231
     94  CA        -2.4450   12.3420    6.5320 C.3   202  LYS202      0.1678
     95  C         -2.4880   11.3570    7.7010 C.2   202  LYS202      0.2434
     96  O         -3.2120   11.5570    8.6830 O.2   202  LYS202     -0.2733
     97  CB        -3.0460   13.6900    6.9390 C.3   202  LYS202      0.0284
     98  CG        -2.8470   14.8040    5.9100 C.3   202  LYS202      0.0035
     99  CD        -1.3750   15.1660    5.7470 C.3   202  LYS202      0.0206
    100  CE        -1.2120   16.3370    4.7940 C.3   202  LYS202      0.1093
    101  NZ         0.2090   16.7800    4.7050 N.3   202  LYS202     -0.1314
    102  N         -1.7020   10.2730    7.6070 N.am  203  PRO203     -0.2718
    103  CA        -1.6760    9.2670    8.6690 C.3   203  PRO203      0.1535
    104  C         -0.9120    9.7330    9.8960 C.2   203  PRO203      0.2599
    105  O         -0.1390   10.6870    9.8310 O.2   203  PRO203     -0.2715
    106  CB        -1.0050    8.0810    7.9900 C.3   203  PRO203      0.0310
    107  CG         0.0040    8.7450    7.1210 C.3   203  PRO203      0.0237
    108  CD        -0.7950    9.8920    6.5090 C.3   203  PRO203      0.0939
    109  N         -1.1390    9.0590   11.0150 N.am  204  GLY204     -0.1941
    110  CA        -0.4440    9.4240   12.2280 C.3   204  GLY204      0.2014
    111  C          1.0370    9.1230   12.1040 C.2   204  GLY204      0.2639
    112  O          1.4360    8.1970   11.3910 O.2   204  GLY204     -0.2714
    113  N          1.8570    9.9150   12.7840 N.am  205  VAL205     -0.1963
    114  CA         3.3010    9.7180   12.7650 C.3   205  VAL205      0.1727
    115  C          3.7020    9.2970   14.1680 C.2   205  VAL205      0.2616
    116  O          3.2100    9.8450   15.1590 O.2   205  VAL205     -0.2715
    117  CB         4.0460   11.0050   12.3620 C.3   205  VAL205      0.0290
    118  CG1        5.5350   10.7150   12.2030 C.3   205  VAL205      0.0023
    119  CG2        3.4790   11.5370   11.0570 C.3   205  VAL205      0.0023
    120  N          4.5930    8.3170   14.2490 N.am  206  TYR206     -0.1974
    121  CA         5.0080    7.7870   15.5360 C.3   206  TYR206      0.1639
    122  C          6.5130    7.7190   15.7290 C.2   206  TYR206      0.2290
    123  O          7.2650    7.5080   14.7780 O.2   206  TYR206     -0.2864
    124  CB         4.3990    6.3920   15.7140 C.3   206  TYR206      0.0560
    125  CG         2.9000    6.3800   15.5150 C.ar  206  TYR206     -0.0198
    126  CD1        2.3390    6.2820   14.2380 C.ar  206  TYR206     -0.0009
    127  CD2        2.0430    6.5450   16.5990 C.ar  206  TYR206     -0.0009
    128  CE1        0.9490    6.3580   14.0520 C.ar  206  TYR206      0.0417
    129  CE2        0.6630    6.6220   16.4280 C.ar  206  TYR206      0.0417
    130  CZ         0.1230    6.5310   15.1560 C.ar  206  TYR206      0.1957
    131  OH        -1.2440    6.6440   15.0080 O.3   206  TYR206     -0.2866
@<TRIPOS>BOND
     1   101   100    1
     2   100    99    1
     3    93    94    1
     4    99    98    1
     5    98    97    1
     6   108   107    1
     7   108   102    1
     8    94    97    1
     9    94    95    1
    10   107   106    1
    11   102    95   am
    12   102   103    1
    13    95    96    2
    14   106   103    1
    15   103   104    1
    16    82    81    1
    17    81    78    1
    18   105   104    2
    19    80    79    2
    20   104   109   am
    21    72    71   ar
    22    72    70   ar
    23    78    79    1
    24    78    77    1
    25    79    83   am
    26    71    69   ar
    27   109   110    1
    28    77    75   am
    29   119   117    1
    30    70    68   ar
    31   112   111    2
    32    90    89    2
    33    89    88    1
    34    83    84    1
    35    75    74    1
    36    75    76    2
    37   111   110    1
    38   111   113   am
    39    69    66   ar
    40    84    85    1
    41   118   117    1
    42    18    16   ar
    43   117   114    1
    44    74    73    1
    45    87    85   am
    46    87    88    1
    47    85    86    2
    48    68    66   ar
    49    68    67   ar
    50    15    16    1
    51    15    12    1
    52    16    17   ar
    53   114   113    1
    54   114   115    1
    55    88    91    1
    56    66    64   ar
    57    11    12    1
    58    12    13    1
    59    73    61   am
    60    67    65   ar
    61   128   126   ar
    62   128   130   ar
    63    62    61    2
    64   115   120   am
    65   115   116    2
    66   126   125   ar
    67   120   121    1
    68    91    92    1
    69    61    60    1
    70    64    65   ar
    71    64    63    1
    72   123   122    2
    73    13    19   am
    74    13    14    2
    75   131   130    1
    76   130   129   ar
    77    63    60    1
    78    19    20    1
    79   125   124    1
    80   125   127   ar
    81   121   124    1
    82   121   122    1
    83    92    30    1
    84    60    59    1
    85    22    21    2
    86    59    55   am
    87   129   127   ar
    88    24    23    1
    89    21    20    1
    90    21    25   am
    91    20    23    1
    92    30    29    1
    93    55    56    2
    94    55    54    1
    95    57    58    1
    96    57    54    1
    97    29    26    1
    98    25    26    1
    99    26    27    1
   100    54    53    1
   101    53    48   am
   102    27    31   am
   103    27    28    2
   104    31    32    1
   105    51    50    1
   106    47    48    1
   107    47    46    1
   108    47    50    1
   109    48    49    2
   110    50    52    1
   111    35    32    1
   112    35    36    1
   113    32    33    1
   114    38    37    2
   115     9     7   ar
   116     9    10   ar
   117     7     6   ar
   118    10     8   ar
   119    37    36    1
   120    37    39   am
   121    33    34    2
   122     6     8   ar
   123     6     5    1
   124    45    44    1
   125     5     2    1
   126    40    41    1
   127    41    44    1
   128    41    42    1
   129    42    43    2
   130     2     1    1
   131     2     3    1
   132     3     4    2
