@<TRIPOS>MOLECULE
tmp/3aauA00.pdb
 179 181 0 0 0
SMALL
GASTEIGER

@<TRIPOS>ATOM
      1  N         -5.5050   16.1440   36.1430 N.3    22  TYR22      -0.1241
      2  CA        -6.3510   15.7560   35.0250 C.3    22  TYR22       0.1605
      3  C         -5.4500   15.0440   34.0260 C.2    22  TYR22       0.2264
      4  O         -4.2380   15.2650   34.0170 O.2    22  TYR22      -0.2867
      5  CB        -6.9460   17.0060   34.3730 C.3    22  TYR22       0.0534
      6  CG        -5.8960   18.0590   34.0820 C.ar   22  TYR22      -0.0201
      7  CD1       -5.0530   17.9480   32.9750 C.ar   22  TYR22      -0.0009
      8  CD2       -5.6830   19.1170   34.9680 C.ar   22  TYR22      -0.0009
      9  CE1       -4.0200   18.8590   32.7610 C.ar   22  TYR22       0.0417
     10  CE2       -4.6520   20.0300   34.7640 C.ar   22  TYR22       0.0417
     11  CZ        -3.8240   19.8920   33.6600 C.ar   22  TYR22       0.1957
     12  OH        -2.7820   20.7760   33.4710 O.3    22  TYR22      -0.2866
     13  N         -3.4920   14.4730   30.7970 N.3    24  PHE24      -0.1227
     14  CA        -2.9930   15.4020   29.7890 C.3    24  PHE24       0.1736
     15  C         -2.1230   14.7450   28.7130 C.2    24  PHE24       0.2595
     16  O         -1.8460   15.3580   27.6810 O.2    24  PHE24      -0.2718
     17  CB        -2.2160   16.5530   30.4440 C.3    24  PHE24       0.0547
     18  CG        -0.9080   16.1430   31.0550 C.ar   24  PHE24      -0.0202
     19  CD1       -0.8410   15.7150   32.3770 C.ar   24  PHE24      -0.0042
     20  CD2        0.2630   16.1730   30.3000 C.ar   24  PHE24      -0.0042
     21  CE1        0.3720   15.3210   32.9380 C.ar   24  PHE24      -0.0003
     22  CE2        1.4800   15.7810   30.8510 C.ar   24  PHE24      -0.0003
     23  CZ         1.5340   15.3540   32.1720 C.ar   24  PHE24      -0.0000
     24  N         -1.7000   13.5050   28.9480 N.am   25  CYS25      -0.1970
     25  CA        -0.8520   12.7860   27.9910 C.3    25  CYS25       0.1712
     26  C         -0.8020   11.2930   28.2630 C.2    25  CYS25       0.2296
     27  O         -1.0950   10.8360   29.3660 O.2    25  CYS25      -0.2864
     28  CB         0.5890   13.3080   28.0450 C.3    25  CYS25       0.0983
     29  SG         0.9830   14.7150   26.9600 S.3    25  CYS25      -0.0798
     30  N          7.3080   16.8150   24.5270 N.3    40  HIS40      -0.1226
     31  CA         6.3760   17.9380   24.5360 C.3    40  HIS40       0.1752
     32  C          5.2680   17.7700   25.5770 C.2    40  HIS40       0.2596
     33  O          4.4230   18.6540   25.7510 O.2    40  HIS40      -0.2718
     34  CB         5.8070   18.2080   23.1270 C.3    40  HIS40       0.0759
     35  CG         4.6590   17.3320   22.7280 C.ar   40  HIS40       0.0818
     36  ND1        4.8210   16.1660   22.0090 N.ar   40  HIS40      -0.2268
     37  CD2        3.3230   17.4960   22.8780 C.ar   40  HIS40       0.1154
     38  CE1        3.6350   15.6540   21.7300 C.ar   40  HIS40       0.1986
     39  NE2        2.7080   16.4430   22.2460 N.ar   40  HIS40      -0.2212
     40  N          5.2930   16.6400   26.2830 N.am   41  CYS41      -0.1956
     41  CA         4.3330   16.3640   27.3460 C.3    41  CYS41       0.1843
     42  C          4.9430   16.7560   28.6890 C.2    41  CYS41       0.2625
     43  O          4.3100   16.6120   29.7300 O.2    41  CYS41      -0.2714
     44  CB         3.9840   14.8750   27.4120 C.3    41  CYS41       0.0997
     45  SG         2.8020   14.2520   26.1780 S.3    41  CYS41      -0.0797
     46  N          6.1790   17.2430   28.6660 N.am   42  TYR42      -0.1960
     47  CA         6.8430   17.6200   29.9070 C.3    42  TYR42       0.1771
     48  C          6.1080   18.6670   30.7320 C.2    42  TYR42       0.2619
     49  O          5.5450   19.6250   30.2000 O.2    42  TYR42      -0.2715
     50  CB         8.2580   18.1450   29.6440 C.3    42  TYR42       0.0574
     51  CG         8.8390   18.8330   30.8630 C.ar   42  TYR42      -0.0198
     52  CD1        9.3500   18.0930   31.9300 C.ar   42  TYR42      -0.0009
     53  CD2        8.7700   20.2170   30.9970 C.ar   42  TYR42      -0.0009
     54  CE1        9.7680   18.7210   33.1070 C.ar   42  TYR42       0.0417
     55  CE2        9.1820   20.8510   32.1630 C.ar   42  TYR42       0.0417
     56  CZ         9.6750   20.0990   33.2120 C.ar   42  TYR42       0.1957
     57  OH        10.0520   20.7360   34.3720 O.3    42  TYR42      -0.2866
     58  N          6.1350   18.4560   32.0440 N.am   43  LYS43      -0.1977
     59  CA         5.5590   19.3640   33.0260 C.3    43  LYS43       0.1596
     60  C          5.9000   18.8100   34.4010 C.2    43  LYS43       0.2287
     61  O          6.1740   17.6170   34.5420 O.2    43  LYS43      -0.2864
     62  CB         4.0420   19.5120   32.8580 C.3    43  LYS43       0.0298
     63  CG         3.2460   18.2280   32.9110 C.3    43  LYS43       0.0038
     64  CD         1.7810   18.5090   33.2370 C.3    43  LYS43       0.0206
     65  CE         1.1530   19.5040   32.2700 C.3    43  LYS43       0.1093
     66  NZ        -0.2360   19.8700   32.6820 N.3    43  LYS43      -0.1314
     67  N         -6.9510    8.3600   12.9180 N.3   171  ASP171     -0.1225
     68  CA        -5.6960    8.9970   13.3090 C.3   171  ASP171      0.1805
     69  C         -5.6240    9.1760   14.8290 C.2   171  ASP171      0.2598
     70  O         -6.5690    8.8570   15.5520 O.2   171  ASP171     -0.2718
     71  CB        -5.6540   10.3710   12.6220 C.3   171  ASP171      0.1424
     72  CG        -4.2800   11.0240   12.6340 C.2   171  ASP171      0.3668
     73  OD1       -3.3000   10.4070   13.0880 O.co2 171  ASP171     -0.2456
     74  OD2       -4.1930   12.1800   12.1630 O.co2 171  ASP171     -0.2456
     75  N         -4.4860    9.6670   15.3060 N.am  172  SER172     -0.1938
     76  CA        -4.3140    9.9550   16.7220 C.3   172  SER172      0.2055
     77  C         -4.7640   11.4120   16.8170 C.2   172  SER172      0.2643
     78  O         -5.0060   12.0470   15.7880 O.2   172  SER172     -0.2714
     79  CB        -2.8430    9.8300   17.1220 C.3   172  SER172      0.2130
     80  OG        -2.0360   10.7220   16.3710 O.3   172  SER172     -0.2179
     81  N         -4.8800   11.9510   18.0270 N.am  173  CYS173     -0.1953
     82  CA        -5.3130   13.3380   18.1730 C.3   173  CYS173      0.1843
     83  C         -4.8790   13.8900   19.5270 C.2   173  CYS173      0.2625
     84  O         -4.2670   13.1760   20.3210 O.2   173  CYS173     -0.2714
     85  CB        -6.8360   13.4150   18.0210 C.3   173  CYS173      0.0997
     86  SG        -7.4940   15.0430   17.5270 S.3   173  CYS173     -0.0797
     87  N         -5.1900   15.1580   19.7860 N.am  174  GLN174     -0.1963
     88  CA        -4.8220   15.7900   21.0480 C.3   174  GLN174      0.1733
     89  C         -5.2750   14.9290   22.2180 C.2   174  GLN174      0.2616
     90  O         -6.4230   14.4890   22.2620 O.2   174  GLN174     -0.2715
     91  CB        -5.4600   17.1770   21.1690 C.3   174  GLN174      0.0408
     92  CG        -5.0950   17.8770   22.4730 C.3   174  GLN174      0.0908
     93  CD        -5.7260   19.2460   22.6170 C.2   174  GLN174      0.2608
     94  OE1       -5.4340   19.9760   23.5680 O.2   174  GLN174     -0.2717
     95  NE2       -6.5990   19.6040   21.6800 N.am  174  GLN174     -0.0878
     96  N         -4.3760   14.6990   23.1660 N.am  175  GLY175     -0.1955
     97  CA        -4.7190   13.8750   24.3100 C.3   175  GLY175      0.1869
     98  C         -4.0580   12.5120   24.2160 C.2   175  GLY175      0.2309
     99  O         -3.8300   11.8560   25.2300 O.2   175  GLY175     -0.2863
    100  N         -1.2100   12.2800   22.8360 N.3   177  SER177     -0.1217
    101  CA         0.1840   12.7090   22.9080 C.3   177  SER177      0.1889
    102  C          1.0310   11.9300   23.9130 C.2   177  SER177      0.2288
    103  O          0.6380   11.7590   25.0710 O.2   177  SER177     -0.2866
    104  CB         0.2290   14.1950   23.2620 C.3   177  SER177      0.2089
    105  OG        -0.8870   14.8730   22.7060 O.3   177  SER177     -0.2183
    106  N          3.2930    8.9710   20.2010 N.3   191  VAL191     -0.1231
    107  CA         2.4000    9.9580   19.5890 C.3   191  VAL191      0.1692
    108  C          3.0500   11.3350   19.7260 C.2   191  VAL191      0.2593
    109  O          3.1830   11.8580   20.8300 O.2   191  VAL191     -0.2718
    110  CB         1.0220    9.9490   20.2750 C.3   191  VAL191      0.0266
    111  CG1        0.0960   10.9430   19.5980 C.3   191  VAL191      0.0020
    112  CG2        0.4250    8.5420   20.2130 C.3   191  VAL191      0.0020
    113  N          3.4360   11.9220   18.5950 N.am  192  SER192     -0.1938
    114  CA         4.1410   13.2010   18.5970 C.3   192  SER192      0.2055
    115  C          3.3930   14.4050   18.0240 C.2   192  SER192      0.2643
    116  O          3.1450   15.3740   18.7380 O.2   192  SER192     -0.2714
    117  CB         5.4770   13.0320   17.8620 C.3   192  SER192      0.2130
    118  OG         6.2820   14.1950   17.9580 O.3   192  SER192     -0.2179
    119  N          3.0550   14.3660   16.7390 N.am  193  TRP193     -0.1959
    120  CA         2.3450   15.4920   16.1390 C.3   193  TRP193      0.1771
    121  C          1.6040   15.1750   14.8480 C.2   193  TRP193      0.2620
    122  O          1.4640   14.0170   14.4600 O.2   193  TRP193     -0.2715
    123  CB         3.3040   16.6710   15.8930 C.3   193  TRP193      0.0590
    124  CG         4.4550   16.4060   14.9410 C.ar  193  TRP193      0.0006
    125  CD1        5.6230   15.7530   15.2230 C.ar  193  TRP193      0.0946
    126  CD2        4.5540   16.8250   13.5700 C.ar  193  TRP193      0.0152
    127  NE1        6.4440   15.7430   14.1180 N.ar  193  TRP193     -0.2442
    128  CE2        5.8140   16.3930   13.0900 C.ar  193  TRP193      0.0810
    129  CE3        3.7020   17.5220   12.7020 C.ar  193  TRP193      0.0012
    130  CZ2        6.2430   16.6370   11.7780 C.ar  193  TRP193      0.0191
    131  CZ3        4.1310   17.7650   11.3910 C.ar  193  TRP193      0.0001
    132  CH2        5.3900   17.3220   10.9470 C.ar  193  TRP193      0.0015
    133  N          1.1250   16.2350   14.2020 N.am  194  GLY194     -0.1940
    134  CA         0.3970   16.1160   12.9510 C.3   194  GLY194      0.2014
    135  C         -0.2670   17.4490   12.6560 C.2   194  GLY194      0.2640
    136  O          0.0000   18.4360   13.3390 O.2   194  GLY194     -0.2714
    137  N         -1.1150   17.4920   11.6340 N.am  195  SER195     -0.1935
    138  CA        -1.8360   18.7140   11.2830 C.3   195  SER195      0.2055
    139  C         -3.3150   18.4000   11.4110 C.2   195  SER195      0.2644
    140  O         -3.9010   17.7640   10.5340 O.2   195  SER195     -0.2714
    141  CB        -1.5180   19.1460    9.8500 C.3   195  SER195      0.2130
    142  OG        -0.2040   19.6640    9.7560 O.3   195  SER195     -0.2179
    143  N         -3.9190   18.8490   12.5050 N.am  196  GLY196     -0.1939
    144  CA        -5.3190   18.5480   12.7260 C.3   196  GLY196      0.2014
    145  C         -5.3800   17.0600   13.0100 C.2   196  GLY196      0.2639
    146  O         -4.3550   16.4490   13.3170 O.2   196  GLY196     -0.2714
    147  N         -6.5600   16.4630   12.8990 N.am  197  CYS197     -0.1967
    148  CA        -6.6920   15.0370   13.1580 C.3   197  CYS197      0.1712
    149  C         -7.5200   14.3310   12.1060 C.2   197  CYS197      0.2296
    150  O         -8.6100   14.7800   11.7580 O.2   197  CYS197     -0.2864
    151  CB        -7.3330   14.8100   14.5250 C.3   197  CYS197      0.0983
    152  SG        -6.3960   15.5430   15.8960 S.3   197  CYS197     -0.0798
    153  N         -2.8450   14.0570    5.7550 N.3   202  LYS202     -0.1231
    154  CA        -2.1690   14.5580    6.9500 C.3   202  LYS202      0.1678
    155  C         -2.1840   13.4980    8.0480 C.2   202  LYS202      0.2434
    156  O         -2.8870   13.6260    9.0530 O.2   202  LYS202     -0.2733
    157  CB        -2.8350   15.8490    7.4440 C.3   202  LYS202      0.0284
    158  CG        -2.6270   17.0510    6.5160 C.3   202  LYS202      0.0035
    159  CD        -1.1440   17.4170    6.4000 C.3   202  LYS202      0.0206
    160  CE        -0.9280   18.6270    5.4970 C.3   202  LYS202      0.1093
    161  NZ         0.5160   18.9860    5.3630 N.3   202  LYS202     -0.1314
    162  N         -1.3980   12.4260    7.8630 N.am  203  PRO203     -0.2718
    163  CA        -1.3130   11.3310    8.8310 C.3   203  PRO203      0.1535
    164  C         -0.5660   11.7470   10.0930 C.2   203  PRO203      0.2599
    165  O          0.1630   12.7400   10.0970 O.2   203  PRO203     -0.2715
    166  CB        -0.5660   10.2550    8.0530 C.3   203  PRO203      0.0310
    167  CG         0.4020   11.0740    7.2440 C.3   203  PRO203      0.0237
    168  CD        -0.4830   12.1940    6.7300 C.3   203  PRO203      0.0939
    169  N         -0.7480   10.9840   11.1640 N.am  204  GLY204     -0.1941
    170  CA        -0.0550   11.2990   12.3970 C.3   204  GLY204      0.2014
    171  C          1.4380   11.0670   12.2570 C.2   204  GLY204      0.2638
    172  O          1.8730   10.2010   11.4910 O.2   204  GLY204     -0.2714
    173  N          2.2290   11.8520   12.9820 N.am  205  VAL205     -0.1977
    174  CA         3.6800   11.7130   12.9530 C.3   205  VAL205      0.1596
    175  C          4.1130   11.2040   14.3190 C.2   205  VAL205      0.2287
    176  O          3.6100   11.6580   15.3530 O.2   205  VAL205     -0.2864
    177  CB         4.3670   13.0540   12.6420 C.3   205  VAL205      0.0276
    178  CG1        5.8680   12.8500   12.5150 C.3   205  VAL205      0.0022
    179  CG2        3.8040   13.6270   11.3510 C.3   205  VAL205      0.0022
@<TRIPOS>BOND
     1   161   160    1
     2   160   159    1
     3   153   154    1
     4   159   158    1
     5   158   157    1
     6   168   167    1
     7   168   162    1
     8   154   157    1
     9   154   155    1
    10   167   166    1
    11   162   155   am
    12   162   163    1
    13   155   156    2
    14   166   163    1
    15   163   164    1
    16   142   141    1
    17   141   138    1
    18   164   165    2
    19   164   169   am
    20   140   139    2
    21   132   131   ar
    22   132   130   ar
    23   169   170    1
    24   138   139    1
    25   138   137    1
    26   179   177    1
    27   131   129   ar
    28   139   143   am
    29   172   171    2
    30   137   135   am
    31   150   149    2
    32   130   128   ar
    33   149   148    1
    34    74    72   ar
    35   171   170    1
    36   171   173   am
    37   143   144    1
    38   178   177    1
    39    71    72    1
    40    71    68    1
    41    72    73   ar
    42   177   174    1
    43   135   134    1
    44   135   136    2
    45   129   126   ar
    46   144   145    1
    47   147   145   am
    48   147   148    1
    49    67    68    1
    50   134   133    1
    51   174   173    1
    52   174   175    1
    53   145   146    2
    54   128   126   ar
    55   128   127   ar
    56   148   151    1
    57    68    69    1
    58   126   124   ar
    59   127   125   ar
    60   133   121   am
    61   175   176    2
    62   122   121    2
    63   151   152    1
    64    69    75   am
    65    69    70    2
    66   121   120    1
    67   124   125   ar
    68   124   123    1
    69    75    76    1
    70    78    77    2
    71   123   120    1
    72   152    86    1
    73   120   119    1
    74    80    79    1
    75    76    77    1
    76    76    79    1
    77   119   115   am
    78    77    81   am
    79    86    85    1
    80   117   118    1
    81   117   114    1
    82    85    82    1
    83   115   114    1
    84   115   116    2
    85    81    82    1
    86    82    83    1
    87   113   114    1
    88   113   108   am
    89    83    87   am
    90    83    84    2
    91   107   108    1
    92   107   106    1
    93   107   110    1
    94   111   110    1
    95   108   109    2
    96    87    88    1
    97   112   110    1
    98    88    91    1
    99    88    89    1
   100    91    92    1
   101    95    93   am
   102    38    36   ar
   103    38    39   ar
   104    36    35   ar
   105    89    90    2
   106    89    96   am
   107    39    37   ar
   108    92    93    1
   109    93    94    2
   110   105   104    1
   111    35    37   ar
   112    35    34    1
   113   100   101    1
   114   101   104    1
   115   101   102    1
   116    34    31    1
   117    96    97    1
   118   102   103    2
   119    98    97    1
   120    98    99    2
   121    30    31    1
   122    31    32    1
   123    32    33    2
   124    32    40   am
   125    45    29    1
   126    45    44    1
   127    40    41    1
   128    29    28    1
   129    41    44    1
   130    41    42    1
   131    16    15    2
   132    25    28    1
   133    25    26    1
   134    25    24    1
   135    26    27    2
   136    46    42   am
   137    46    47    1
   138    42    43    2
   139    15    24   am
   140    15    14    1
   141    50    47    1
   142    50    51    1
   143    14    17    1
   144    14    13    1
   145    47    48    1
   146    49    48    2
   147    20    22   ar
   148    20    18   ar
   149    17    18    1
   150    48    58   am
   151    22    23   ar
   152    51    53   ar
   153    51    52   ar
   154    53    55   ar
   155    18    19   ar
   156    52    54   ar
   157    58    59    1
   158    55    56   ar
   159    23    21   ar
   160    65    66    1
   161    65    64    1
   162    19    21   ar
   163     9     7   ar
   164     9    11   ar
   165    62    63    1
   166    62    59    1
   167    63    64    1
   168     7     6   ar
   169    59    60    1
   170    54    56   ar
   171    56    57    1
   172    12    11    1
   173    11    10   ar
   174     4     3    2
   175     3     2    1
   176     6     5    1
   177     6     8   ar
   178     5     2    1
   179    60    61    2
   180    10     8   ar
   181     2     1    1
