@<TRIPOS>MOLECULE
tmp/3aavB00.pdb
 161 160 0 0 0
SMALL
GASTEIGER

@<TRIPOS>ATOM
      1  N         47.1420   33.1000   41.1520 N.3    22  TYR22      -0.1241
      2  CA        46.9550   32.0350   42.1310 C.3    22  TYR22       0.1605
      3  C         45.6730   32.3560   42.9000 C.2    22  TYR22       0.2264
      4  O         45.2370   33.5100   42.9280 O.2    22  TYR22      -0.2867
      5  CB        48.1270   32.0230   43.1150 C.3    22  TYR22       0.0534
      6  CG        48.4620   33.4110   43.6180 C.ar   22  TYR22      -0.0201
      7  CD1       49.3170   34.2440   42.8960 C.ar   22  TYR22      -0.0009
      8  CD2       47.8470   33.9300   44.7560 C.ar   22  TYR22      -0.0009
      9  CE1       49.5450   35.5590   43.2870 C.ar   22  TYR22       0.0417
     10  CE2       48.0680   35.2510   45.1560 C.ar   22  TYR22       0.0417
     11  CZ        48.9150   36.0570   44.4130 C.ar   22  TYR22       0.1957
     12  OH        49.1160   37.3690   44.7790 O.3    22  TYR22      -0.2866
     13  N         43.5200   33.4550   45.8390 N.3    24  PHE24      -0.1227
     14  CA        43.8520   34.2510   47.0130 C.3    24  PHE24       0.1736
     15  C         42.6520   34.5630   47.9040 C.2    24  PHE24       0.2595
     16  O         42.8250   34.9590   49.0530 O.2    24  PHE24      -0.2718
     17  CB        44.5610   35.5520   46.6020 C.3    24  PHE24       0.0547
     18  CG        43.6690   36.5490   45.9140 C.ar   24  PHE24      -0.0202
     19  CD1       42.9120   37.4560   46.6550 C.ar   24  PHE24      -0.0042
     20  CD2       43.5840   36.5830   44.5280 C.ar   24  PHE24      -0.0042
     21  CE1       42.0840   38.3810   46.0240 C.ar   24  PHE24      -0.0003
     22  CE2       42.7590   37.5010   43.8830 C.ar   24  PHE24      -0.0003
     23  CZ        42.0060   38.4050   44.6320 C.ar   24  PHE24      -0.0000
     24  N         41.4450   34.3690   47.3780 N.am   25  CYS25      -0.1970
     25  CA        40.2180   34.6410   48.1350 C.3    25  CYS25       0.1712
     26  C         39.0130   33.9990   47.4740 C.2    25  CYS25       0.2296
     27  O         39.0410   33.6550   46.2930 O.2    25  CYS25      -0.2864
     28  CB        39.9330   36.1470   48.2150 C.3    25  CYS25       0.0983
     29  SG        40.7100   37.0870   49.5680 S.3    25  CYS25      -0.0798
     30  N         38.6920   43.2380   52.3090 N.3    40  HIS40      -0.1226
     31  CA        40.1070   43.0130   52.5820 C.3    40  HIS40       0.1752
     32  C         40.7650   42.1330   51.5200 C.2    40  HIS40       0.2596
     33  O         41.9750   41.9190   51.5450 O.2    40  HIS40      -0.2718
     34  CB        40.3270   42.4470   54.0030 C.3    40  HIS40       0.0759
     35  CG        40.0760   40.9760   54.1410 C.ar   40  HIS40       0.0818
     36  ND1       38.9020   40.4640   54.6500 N.ar   40  HIS40      -0.2268
     37  CD2       40.8760   39.9090   53.8970 C.ar   40  HIS40       0.1154
     38  CE1       38.9900   39.1470   54.7170 C.ar   40  HIS40       0.1986
     39  NE2       40.1780   38.7850   54.2660 N.ar   40  HIS40      -0.2212
     40  N         39.9620   41.6430   50.5790 N.am   41  CYS41      -0.1970
     41  CA        40.4650   40.8270   49.4780 C.3    41  CYS41       0.1712
     42  C         40.7790   41.7110   48.2740 C.2    41  CYS41       0.2296
     43  O         41.2090   41.2210   47.2300 O.2    41  CYS41      -0.2864
     44  CB        39.4300   39.7850   49.0570 C.3    41  CYS41       0.0983
     45  SG        39.2540   38.3650   50.1820 S.3    41  CYS41      -0.0798
     46  N         42.3380   43.9660   45.4580 N.3    43  LYS43      -0.1245
     47  CA        43.6200   44.0240   44.7740 C.3    43  LYS43       0.1561
     48  C         43.3210   44.2350   43.2970 C.2    43  LYS43       0.2260
     49  O         42.2090   43.9660   42.8380 O.2    43  LYS43      -0.2867
     50  CB        44.4330   42.7410   45.0050 C.3    43  LYS43       0.0271
     51  CG        43.9810   41.5240   44.2260 C.3    43  LYS43       0.0035
     52  CD        44.6880   40.2640   44.7260 C.3    43  LYS43       0.0206
     53  CE        46.2000   40.3710   44.6490 C.3    43  LYS43       0.1093
     54  NZ        46.8640   39.1400   45.1740 N.3    43  LYS43      -0.1314
     55  N         36.0190   25.4490   61.6230 N.3   171  ASP171     -0.1225
     56  CA        36.0530   26.8890   61.3770 C.3   171  ASP171      0.1805
     57  C         36.6030   27.1950   59.9800 C.2   171  ASP171      0.2598
     58  O         37.1150   26.3070   59.2960 O.2   171  ASP171     -0.2718
     59  CB        36.9420   27.5160   62.4650 C.3   171  ASP171      0.1424
     60  CG        37.0170   29.0280   62.3940 C.2   171  ASP171      0.3668
     61  OD1       36.0700   29.6740   61.8990 O.co2 171  ASP171     -0.2456
     62  OD2       38.0340   29.5730   62.8750 O.co2 171  ASP171     -0.2456
     63  N         36.4680   28.4420   59.5400 N.am  172  SER172     -0.1938
     64  CA        37.0150   28.8320   58.2460 C.3   172  SER172      0.2055
     65  C         38.4730   29.1800   58.5530 C.2   172  SER172      0.2643
     66  O         38.8620   29.2100   59.7210 O.2   172  SER172     -0.2714
     67  CB        36.2600   30.0400   57.6760 C.3   172  SER172      0.2130
     68  OG        36.2260   31.1170   58.5940 O.3   172  SER172     -0.2179
     69  N         39.2850   29.4330   57.5320 N.am  173  CYS173     -0.1953
     70  CA        40.6900   29.7390   57.7810 C.3   173  CYS173      0.1843
     71  C         41.3030   30.5270   56.6250 C.2   173  CYS173      0.2625
     72  O         40.6090   30.8750   55.6690 O.2   173  CYS173     -0.2714
     73  CB        41.4530   28.4270   58.0070 C.3   173  CYS173      0.0997
     74  SG        43.0470   28.5610   58.8780 S.3   173  CYS173     -0.0797
     75  N         42.6020   30.8090   56.7230 N.am  174  GLN174     -0.1963
     76  CA        43.3160   31.5670   55.6990 C.3   174  GLN174      0.1733
     77  C         43.0660   30.9840   54.3130 C.2   174  GLN174      0.2617
     78  O         43.3210   29.8060   54.0690 O.2   174  GLN174     -0.2715
     79  CB        44.8200   31.5710   56.0010 C.3   174  GLN174      0.0408
     80  CG        45.6210   32.6000   55.2120 C.3   174  GLN174      0.0908
     81  CD        45.8590   32.1970   53.7680 C.2   174  GLN174      0.2608
     82  OE1       46.3310   32.9970   52.9590 O.2   174  GLN174     -0.2717
     83  NE2       45.5450   30.9510   53.4390 N.am  174  GLN174     -0.0878
     84  N         42.5770   31.8190   53.4020 N.am  175  GLY175     -0.1940
     85  CA        42.2960   31.3490   52.0590 C.3   175  GLY175      0.2014
     86  C         40.8050   31.2810   51.7960 C.2   175  GLY175      0.2639
     87  O         40.3750   31.2520   50.6410 O.2   175  GLY175     -0.2714
     88  N         40.0120   31.2450   52.8640 N.am  176  ASP176     -0.1957
     89  CA        38.5580   31.1970   52.7290 C.3   176  ASP176      0.1840
     90  C         37.9800   32.6060   52.6720 C.2   176  ASP176      0.2622
     91  O         36.8260   32.7890   52.2790 O.2   176  ASP176     -0.2715
     92  CB        37.9160   30.4520   53.9080 C.3   176  ASP176      0.1450
     93  CG        38.2750   28.9800   53.9380 C.2   176  ASP176      0.3671
     94  OD1       38.2230   28.3360   52.8730 O.co2 176  ASP176     -0.2456
     95  OD2       38.5940   28.4620   55.0310 O.co2 176  ASP176     -0.2456
     96  N         38.7840   33.5880   53.0770 N.am  177  SER177     -0.1950
     97  CA        38.3700   34.9910   53.0910 C.3   177  SER177      0.1924
     98  C         37.5960   35.3890   51.8410 C.2   177  SER177      0.2314
     99  O         37.9990   35.0650   50.7230 O.2   177  SER177     -0.2863
    100  CB        39.5920   35.9110   53.2260 C.3   177  SER177      0.2116
    101  OG        40.2010   35.7900   54.5010 O.3   177  SER177     -0.2180
    102  N         33.1520   35.4100   54.6200 N.3   191  VAL191     -0.1231
    103  CA        34.2770   35.0440   55.4770 C.3   191  VAL191      0.1692
    104  C         35.1370   36.2940   55.6460 C.2   191  VAL191      0.2593
    105  O         35.6930   36.8110   54.6790 O.2   191  VAL191     -0.2718
    106  CB        35.1100   33.9010   54.8500 C.3   191  VAL191      0.0266
    107  CG1       36.2730   33.5380   55.7640 C.3   191  VAL191      0.0020
    108  CG2       34.2260   32.6840   54.6250 C.3   191  VAL191      0.0020
    109  N         35.2440   36.7750   56.8810 N.am  192  SER192     -0.1938
    110  CA        35.9850   38.0040   57.1500 C.3   192  SER192      0.2055
    111  C         37.2540   37.8520   57.9870 C.2   192  SER192      0.2643
    112  O         38.3550   38.1290   57.5070 O.2   192  SER192     -0.2714
    113  CB        35.0430   39.0210   57.8020 C.3   192  SER192      0.2130
    114  OG        35.6600   40.2890   57.9440 O.3   192  SER192     -0.2179
    115  N         37.1160   37.4270   59.2380 N.am  193  TRP193     -0.1959
    116  CA        38.2920   37.2610   60.0800 C.3   193  TRP193      0.1771
    117  C         38.0660   36.3490   61.2730 C.2   193  TRP193      0.2620
    118  O         36.9980   35.7580   61.4340 O.2   193  TRP193     -0.2715
    119  CB        38.8000   38.6210   60.5770 C.3   193  TRP193      0.0590
    120  CG        37.8250   39.4030   61.4250 C.ar  193  TRP193      0.0006
    121  CD1       36.7970   40.1840   60.9840 C.ar  193  TRP193      0.0946
    122  CD2       37.8130   39.4960   62.8570 C.ar  193  TRP193      0.0152
    123  NE1       36.1470   40.7630   62.0510 N.ar  193  TRP193     -0.2442
    124  CE2       36.7510   40.3570   63.2120 C.ar  193  TRP193      0.0810
    125  CE3       38.5980   38.9350   63.8750 C.ar  193  TRP193      0.0012
    126  CZ2       36.4520   40.6730   64.5430 C.ar  193  TRP193      0.0191
    127  CZ3       38.2990   39.2500   65.2040 C.ar  193  TRP193      0.0001
    128  CH2       37.2360   40.1100   65.5220 C.ar  193  TRP193      0.0015
    129  N         39.0970   36.2400   62.1000 N.am  194  GLY194     -0.1940
    130  CA        39.0210   35.4110   63.2870 C.3   194  GLY194      0.2014
    131  C         40.3690   35.3910   63.9740 C.2   194  GLY194      0.2640
    132  O         41.2710   36.1270   63.5890 O.2   194  GLY194     -0.2714
    133  N         40.5070   34.5590   64.9990 N.am  195  SER195     -0.1935
    134  CA        41.7650   34.4480   65.7250 C.3   195  SER195      0.2055
    135  C         42.2460   33.0210   65.5460 C.2   195  SER195      0.2644
    136  O         41.6990   32.0950   66.1430 O.2   195  SER195     -0.2714
    137  CB        41.5580   34.7460   67.2110 C.3   195  SER195      0.2130
    138  OG        42.7800   34.6260   67.9200 O.3   195  SER195     -0.2179
    139  N         43.2740   32.8450   64.7250 N.am  196  GLY196     -0.1939
    140  CA        43.7670   31.5090   64.4660 C.3   196  GLY196      0.2014
    141  C         42.6690   30.7950   63.7010 C.2   196  GLY196      0.2639
    142  O         41.8570   31.4440   63.0360 O.2   196  GLY196     -0.2714
    143  N         42.6290   29.4720   63.7910 N.am  197  CYS197     -0.1967
    144  CA        41.6020   28.7060   63.0970 C.3   197  CYS197      0.1712
    145  C         41.1430   27.5190   63.9280 C.2   197  CYS197      0.2296
    146  O         41.9580   26.7280   64.3960 O.2   197  CYS197     -0.2864
    147  CB        42.1270   28.2070   61.7490 C.3   197  CYS197      0.0983
    148  SG        42.5790   29.5380   60.5940 S.3   197  CYS197     -0.0798
    149  N         37.1960   30.8090   69.9920 N.3   202  LYS202     -0.1245
    150  CA        37.6110   31.7750   68.9790 C.3   202  LYS202      0.1561
    151  C         36.9390   31.4350   67.6520 C.2   202  LYS202      0.2260
    152  O         37.5900   31.0010   66.7010 O.2   202  LYS202     -0.2867
    153  CB        39.1340   31.7650   68.8180 C.3   202  LYS202      0.0271
    154  CG        39.8840   32.3120   70.0270 C.3   202  LYS202      0.0035
    155  CD        39.4370   33.7340   70.3480 C.3   202  LYS202      0.0206
    156  CE        40.1040   34.2640   71.6070 C.3   202  LYS202      0.1093
    157  NZ        39.6320   35.6380   71.9420 N.3   202  LYS202     -0.1314
    158  N         34.7570   31.9250   64.0240 N.3   204  GLY204     -0.1225
    159  CA        35.0010   32.7800   62.8800 C.3   204  GLY204      0.1811
    160  C         34.0700   33.9780   62.9140 C.2   204  GLY204      0.2280
    161  O         32.9540   33.8980   63.4380 O.2   204  GLY204     -0.2866
@<TRIPOS>BOND
     1     1     2    1
     2     2     3    1
     3     2     5    1
     4    49    48    2
     5     7     9   ar
     6     7     6   ar
     7     3     4    2
     8     5     6    1
     9     9    11   ar
    10    48    47    1
    11     6     8   ar
    12    22    20   ar
    13    22    23   ar
    14    51    52    1
    15    51    50    1
    16    11    12    1
    17    11    10   ar
    18    20    18   ar
    19    23    21   ar
    20    53    52    1
    21    53    54    1
    22     8    10   ar
    23    47    50    1
    24    47    46    1
    25    13    14    1
    26    18    17    1
    27    18    19   ar
    28    21    19   ar
    29    27    26    2
    30    17    14    1
    31    14    15    1
    32    43    42    2
    33    24    15   am
    34    24    25    1
    35    26    25    1
    36    15    16    2
    37    25    28    1
    38    28    29    1
    39    42    41    1
    40    44    41    1
    41    44    45    1
    42    41    40    1
    43    29    45    1
    44    40    32   am
    45    87    86    2
    46    99    98    2
    47    32    33    2
    48    32    31    1
    49    86    85    1
    50    86    88   am
    51    98    97    1
    52    85    84    1
    53    91    90    2
    54    30    31    1
    55    31    34    1
    56    90    89    1
    57    90    96   am
    58    89    88    1
    59    89    92    1
    60    94    93   ar
    61    82    81    2
    62    96    97    1
    63    97   100    1
    64   100   101    1
    65    84    77   am
    66    83    81   am
    67    81    80    1
    68    37    35   ar
    69    37    39   ar
    70    92    93    1
    71    93    95   ar
    72    34    35    1
    73    78    77    2
    74    35    36   ar
    75    39    38   ar
    76    77    76    1
    77   102   103    1
    78   108   106    1
    79    36    38   ar
    80   105   104    2
    81   106   103    1
    82   106   107    1
    83    80    79    1
    84   103   104    1
    85   104   109   am
    86    72    71    2
    87    76    79    1
    88    76    75    1
    89    71    75   am
    90    71    70    1
    91   109   110    1
    92   110   113    1
    93   110   111    1
    94   112   111    2
    95    69    70    1
    96    69    65   am
    97    67    64    1
    98    67    68    1
    99    70    73    1
   100   113   114    1
   101   111   115   am
   102    73    74    1
   103    64    65    1
   104    64    63    1
   105    65    66    2
   106    74   148    1
   107   115   116    1
   108    58    57    2
   109    63    57   am
   110    57    56    1
   111   116   119    1
   112   116   117    1
   113   119   120    1
   114   148   147    1
   115   121   120   ar
   116   121   123   ar
   117   117   118    2
   118   117   129   am
   119    56    55    1
   120    56    59    1
   121   120   122   ar
   122   147   144    1
   123    61    60   ar
   124   123   124   ar
   125   129   130    1
   126    60    59    1
   127    60    62   ar
   128   122   124   ar
   129   122   125   ar
   130   159   160    1
   131   159   158    1
   132   160   161    2
   133   142   141    2
   134   144   143    1
   135   144   145    1
   136   124   126   ar
   137   130   131    1
   138   132   131    2
   139   141   143   am
   140   141   140    1
   141   125   127   ar
   142   145   146    2
   143   131   133   am
   144   140   139    1
   145   126   128   ar
   146   139   135   am
   147   133   134    1
   148   127   128   ar
   149   135   134    1
   150   135   136    2
   151   134   137    1
   152   152   151    2
   153   137   138    1
   154   151   150    1
   155   153   150    1
   156   153   154    1
   157   150   149    1
   158   154   155    1
   159   155   156    1
   160   156   157    1
