@<TRIPOS>MOLECULE
tmp/3aawC03.pdb
 84 75 0 0 0
SMALL
GASTEIGER

@<TRIPOS>ATOM
      1  N        -17.8330   37.1230  -47.4030 N.3     7  LYS7       -0.1245
      2  CA       -17.0300   36.8740  -48.5750 C.3     7  LYS7        0.1561
      3  C        -16.6540   35.4030  -48.6030 C.2     7  LYS7        0.2260
      4  O        -16.1920   34.8690  -47.6030 O.2     7  LYS7       -0.2867
      5  CB       -15.7940   37.7550  -48.5590 C.3     7  LYS7        0.0271
      6  CG       -14.9650   37.6850  -49.8270 C.3     7  LYS7        0.0035
      7  CD       -13.7990   36.7430  -49.6510 C.3     7  LYS7        0.0206
      8  CE       -13.0420   36.5240  -50.9400 C.3     7  LYS7        0.1093
      9  NZ       -11.7830   35.7720  -50.6500 N.3     7  LYS7       -0.1314
     10  N        -14.3470   32.5950  -50.6600 N.3     9  GLY9       -0.1210
     11  CA       -13.2200   32.3840  -51.5680 C.3     9  GLY9        0.1956
     12  C        -13.4070   31.2180  -52.5190 C.2     9  GLY9        0.2612
     13  O        -14.3840   30.4760  -52.4270 O.2     9  GLY9       -0.2717
     14  N        -12.4430   31.0580  -53.4270 N.am   10  GLY10      -0.1956
     15  CA       -12.5100   30.0480  -54.4750 C.3    10  GLY10       0.1869
     16  C        -12.6590   28.6450  -53.9380 C.2    10  GLY10       0.2309
     17  O        -13.4380   27.8530  -54.4780 O.2    10  GLY10      -0.2863
     18  N        -15.4570   35.2390  -54.6530 N.3    41  SER41      -0.1202
     19  CA       -14.3150   35.0380  -55.5280 C.3    41  SER41       0.2020
     20  C        -14.7280   34.1140  -56.6640 C.2    41  SER41       0.2618
     21  O        -15.7370   33.4260  -56.5800 O.2    41  SER41      -0.2717
     22  CB       -13.1510   34.4080  -54.7670 C.3    41  SER41       0.2103
     23  OG       -12.5800   35.3410  -53.8760 O.3    41  SER41      -0.2182
     24  N        -13.9360   34.1100  -57.7280 N.am   42  ALA42      -0.1979
     25  CA       -14.1080   33.1680  -58.8200 C.3    42  ALA42       0.1597
     26  C        -13.9670   31.7670  -58.2500 C.2    42  ALA42       0.2287
     27  O        -13.2740   31.5750  -57.2390 O.2    42  ALA42      -0.2864
     28  CB       -13.0660   33.4110  -59.8800 C.3    42  ALA42       0.0319
     29  N        -12.8530   28.0740  -57.3950 N.3    44  GLY44      -0.1225
     30  CA       -11.6340   27.2720  -57.3200 C.3    44  GLY44       0.1811
     31  C        -10.3960   28.0520  -57.7000 C.2    44  GLY44       0.2280
     32  O        -10.1000   29.0850  -57.1030 O.2    44  GLY44      -0.2866
     33  N         -9.1070   32.2030  -61.1380 N.3    47  THR47      -0.1218
     34  CA        -8.2870   33.4060  -61.2010 C.3    47  THR47       0.1862
     35  C         -6.8600   33.1280  -61.6720 C.2    47  THR47       0.2287
     36  O         -6.3260   33.8760  -62.4860 O.2    47  THR47      -0.2866
     37  CB        -8.2700   34.1390  -59.8420 C.3    47  THR47       0.1770
     38  OG1       -9.5780   34.6550  -59.5760 O.3    47  THR47      -0.2211
     39  CG2       -7.2980   35.2980  -59.8550 C.3    47  THR47       0.0375
     40  N        -15.4780   36.3390  -61.6040 N.3    74  GLU74      -0.1245
     41  CA       -16.2340   36.5090  -60.3700 C.3    74  GLU74       0.1567
     42  C        -17.7230   36.4320  -60.6340 C.2    74  GLU74       0.2260
     43  O        -18.4610   35.8510  -59.8410 O.2    74  GLU74      -0.2867
     44  CB       -15.9070   37.8580  -59.7150 C.3    74  GLU74       0.0388
     45  CG       -14.4580   37.9810  -59.2310 C.3    74  GLU74       0.1160
     46  CD       -14.0030   39.4330  -59.0490 C.2    74  GLU74       0.3649
     47  OE1      -12.8050   39.6440  -58.7520 O.co2  74  GLU74      -0.2457
     48  OE2      -14.8420   40.3600  -59.1850 O.co2  74  GLU74      -0.2457
     49  N         -5.7240   46.5360  -58.8120 N.3   134  ARG134     -0.1245
     50  CA        -7.1660   46.2650  -58.8800 C.3   134  ARG134      0.1563
     51  C         -7.7020   45.6890  -57.5760 C.2   134  ARG134      0.2260
     52  O         -7.2030   44.6700  -57.0870 O.2   134  ARG134     -0.2867
     53  CB        -7.4700   45.2890  -60.0110 C.3   134  ARG134      0.0307
     54  CG        -8.9390   45.2620  -60.3980 C.3   134  ARG134      0.0489
     55  CD        -9.2740   44.0210  -61.1730 C.3   134  ARG134      0.2205
     56  NE        -9.5070   42.8950  -60.2750 N.pl3 134  ARG134     -0.0865
     57  CZ       -10.6600   42.2440  -60.1210 C.cat 134  ARG134      0.5346
     58  NH1      -10.7100   41.2360  -59.2670 N.pl3 134  ARG134      0.1354
     59  NH2      -11.7500   42.5690  -60.8070 N.pl3 134  ARG134      0.1354
     60  N         -9.6410   43.5610  -55.0900 N.3   136  GLY136     -0.1210
     61  CA       -10.1390   42.1920  -55.1850 C.3   136  GLY136      0.1956
     62  C        -11.4230   41.9870  -54.3970 C.2   136  GLY136      0.2613
     63  O        -12.0470   42.9440  -53.9390 O.2   136  GLY136     -0.2717
     64  N        -11.8040   40.7280  -54.2250 N.am  137  SER137     -0.1938
     65  CA       -13.0700   40.4050  -53.5980 C.3   137  SER137      0.2055
     66  C        -13.0190   40.6490  -52.0830 C.2   137  SER137      0.2643
     67  O        -13.9920   41.1340  -51.5090 O.2   137  SER137     -0.2714
     68  CB       -13.5120   38.9810  -53.9520 C.3   137  SER137      0.2130
     69  OG       -12.5300   38.0170  -53.6180 O.3   137  SER137     -0.2179
     70  N        -11.8820   40.3560  -51.4550 N.am  138  ASP138     -0.1971
     71  CA       -11.6770   40.6760  -50.0440 C.3   138  ASP138      0.1709
     72  C        -11.9150   42.1630  -49.7640 C.2   138  ASP138      0.2293
     73  O        -12.6290   42.5150  -48.8260 O.2   138  ASP138     -0.2864
     74  CB       -10.2630   40.3090  -49.5920 C.3   138  ASP138      0.1436
     75  CG       -10.0600   38.8160  -49.4350 C.2   138  ASP138      0.3671
     76  OD1      -10.8540   38.0500  -50.0010 O.co2 138  ASP138     -0.2456
     77  OD2       -9.0950   38.4080  -48.7530 O.co2 138  ASP138     -0.2456
     78  N         -6.0130   39.3080  -47.8240 N.3   196  VAL196     -0.1245
     79  CA        -5.2590   40.3230  -48.5630 C.3   196  VAL196      0.1561
     80  C         -4.9360   41.5140  -47.6430 C.2   196  VAL196      0.2260
     81  O         -5.8280   42.0500  -46.9860 O.2   196  VAL196     -0.2867
     82  CB        -6.0280   40.7910  -49.8140 C.3   196  VAL196      0.0252
     83  CG1       -5.3670   42.0070  -50.4370 C.3   196  VAL196      0.0019
     84  CG2       -6.1230   39.6550  -50.8290 C.3   196  VAL196      0.0019
@<TRIPOS>BOND
     1    36    35    2
     2    35    34    1
     3    40    41    1
     4    34    33    1
     5    34    37    1
     6    55    54    1
     7    55    56    1
     8    59    57    1
     9    42    41    1
    10    42    43    2
    11    54    53    1
    12    41    44    1
    13    56    57    2
    14    57    58    1
    15    53    50    1
    16    28    25    1
    17    39    37    1
    18    37    38    1
    19    44    45    1
    20    45    46    1
    21    48    46   ar
    22    46    47   ar
    23    50    49    1
    24    50    51    1
    25    25    26    1
    26    25    24    1
    27    26    27    2
    28    24    20   am
    29    31    30    1
    30    31    32    2
    31    51    52    2
    32    29    30    1
    33    20    21    2
    34    20    19    1
    35    19    22    1
    36    19    18    1
    37    61    60    1
    38    61    62    1
    39    22    23    1
    40    17    16    2
    41    15    16    1
    42    15    14    1
    43    62    64   am
    44    62    63    2
    45    64    65    1
    46    68    69    1
    47    68    65    1
    48    65    66    1
    49    14    12   am
    50    12    13    2
    51    12    11    1
    52    66    67    2
    53    66    70   am
    54    11    10    1
    55    70    71    1
    56     8     9    1
    57     8     7    1
    58    84    82    1
    59    83    82    1
    60    71    72    1
    61    71    74    1
    62    76    75   ar
    63     6     7    1
    64     6     5    1
    65    82    79    1
    66    72    73    2
    67    74    75    1
    68    75    77   ar
    69     3     2    1
    70     3     4    2
    71     2     5    1
    72     2     1    1
    73    79    78    1
    74    79    80    1
    75    80    81    2
