@<TRIPOS>MOLECULE
tmp/3aawC01.pdb
 104 103 0 0 0
SMALL
GASTEIGER

@<TRIPOS>ATOM
      1  N          4.6670   42.7090  -26.9420 N.3   337  MET337     -0.1230
      2  CA         6.1020   42.9830  -27.0120 C.3   337  MET337      0.1702
      3  C          6.3890   44.4780  -27.0770 C.2   337  MET337      0.2592
      4  O          7.5320   44.8910  -26.9140 O.2   337  MET337     -0.2718
      5  CB         6.7720   42.2310  -28.1810 C.3   337  MET337      0.0401
      6  CG         6.7360   42.9050  -29.5540 C.3   337  MET337      0.0596
      7  SD         7.8220   42.0740  -30.7350 S.3   337  MET337     -0.1393
      8  CE         7.2210   40.3910  -30.6630 C.3   337  MET337      0.0692
      9  N          5.3680   45.2880  -27.3320 N.am  338  LYS338     -0.1966
     10  CA         5.4990   46.7280  -27.1560 C.3   338  LYS338      0.1728
     11  C          5.4600   46.9720  -25.6600 C.2   338  LYS338      0.2617
     12  O          4.6250   46.3900  -24.9580 O.2   338  LYS338     -0.2715
     13  CB         4.3520   47.4830  -27.8360 C.3   338  LYS338      0.0311
     14  CG         4.4820   49.0140  -27.7870 C.3   338  LYS338      0.0038
     15  CD         3.2380   49.7030  -28.3560 C.3   338  LYS338      0.0206
     16  CE         3.1940   51.2000  -28.0020 C.3   338  LYS338      0.1093
     17  NZ         1.9440   51.8660  -28.4830 N.3   338  LYS338     -0.1314
     18  N          6.3690   47.8030  -25.1650 N.am  339  SER339     -0.1936
     19  CA         6.3530   48.2250  -23.7510 C.3   339  SER339      0.2055
     20  C          6.6970   47.1270  -22.7360 C.2   339  SER339      0.2643
     21  O          6.4970   47.3110  -21.5350 O.2   339  SER339     -0.2714
     22  CB         5.0030   48.8750  -23.3860 C.3   339  SER339      0.2130
     23  OG         4.7630   50.0220  -24.1860 O.3   339  SER339     -0.2179
     24  N          7.2230   46.0000  -23.2080 N.am  340  HIS340     -0.1959
     25  CA         7.6250   44.9050  -22.3280 C.3   340  HIS340      0.1772
     26  C          9.0790   44.5230  -22.6350 C.2   340  HIS340      0.2462
     27  O          9.3660   44.0010  -23.7110 O.2   340  HIS340     -0.2730
     28  CB         6.7010   43.7000  -22.5250 C.3   340  HIS340      0.0785
     29  CG         6.8820   42.6180  -21.5020 C.ar  340  HIS340      0.0821
     30  ND1        6.1370   41.4550  -21.5110 N.ar  340  HIS340     -0.2267
     31  CD2        7.7100   42.5250  -20.4310 C.ar  340  HIS340      0.1154
     32  CE1        6.5070   40.6890  -20.4980 C.ar  340  HIS340      0.1986
     33  NE2        7.4590   41.3150  -19.8260 N.ar  340  HIS340     -0.2212
     34  N         10.0050   44.8060  -21.7050 N.am  341  PRO341     -0.2716
     35  CA        11.3910   44.4100  -21.9320 C.3   341  PRO341      0.1536
     36  C         11.6190   42.9000  -21.8540 C.2   341  PRO341      0.2599
     37  O         10.8720   42.1860  -21.1930 O.2   341  PRO341     -0.2715
     38  CB        12.1530   45.1230  -20.8060 C.3   341  PRO341      0.0310
     39  CG        11.2480   46.2050  -20.3420 C.3   341  PRO341      0.0237
     40  CD         9.8720   45.6670  -20.5170 C.3   341  PRO341      0.0939
     41  N         12.6500   42.4310  -22.5460 N.am  342  GLY342     -0.1941
     42  CA        13.0460   41.0260  -22.4940 C.3   342  GLY342      0.2014
     43  C         12.4010   40.1050  -23.5160 C.2   342  GLY342      0.2639
     44  O         12.6960   38.9110  -23.5260 O.2   342  GLY342     -0.2714
     45  N         11.5200   40.6300  -24.3670 N.am  343  VAL343     -0.1963
     46  CA        10.9320   39.8070  -25.4250 C.3   343  VAL343      0.1727
     47  C         12.0050   39.4730  -26.4640 C.2   343  VAL343      0.2617
     48  O         12.2210   38.3000  -26.7750 O.2   343  VAL343     -0.2715
     49  CB         9.7270   40.4880  -26.1030 C.3   343  VAL343      0.0290
     50  CG1        9.3850   39.7960  -27.4270 C.3   343  VAL343      0.0023
     51  CG2        8.5360   40.4930  -25.1690 C.3   343  VAL343      0.0023
     52  N         12.6930   40.4940  -26.9700 N.am  344  THR344     -0.1937
     53  CA        13.8190   40.2710  -27.8720 C.3   344  THR344      0.2028
     54  C         14.8480   39.3100  -27.2630 C.2   344  THR344      0.2642
     55  O         15.3230   38.4010  -27.9360 O.2   344  THR344     -0.2714
     56  CB        14.5170   41.5830  -28.2730 C.3   344  THR344      0.1808
     57  OG1       13.5430   42.5320  -28.7270 O.3   344  THR344     -0.2208
     58  CG2       15.5260   41.3270  -29.3860 C.3   344  THR344      0.0379
     59  N         15.1760   39.4880  -25.9890 N.am  345  ALA345     -0.1977
     60  CA        16.1330   38.5910  -25.3230 C.3   345  ALA345      0.1597
     61  C         15.6580   37.1340  -25.3570 C.2   345  ALA345      0.2287
     62  O         16.3960   36.2570  -25.7790 O.2   345  ALA345     -0.2864
     63  CB        16.3860   39.0380  -23.8900 C.3   345  ALA345      0.0319
     64  N         12.5190   44.2910  -37.6100 N.3   363  THR363     -0.1203
     65  CA        11.4360   44.4400  -36.6350 C.3   363  THR363      0.1994
     66  C         10.3850   45.4670  -37.0270 C.2   363  THR363      0.2619
     67  O         10.6240   46.3470  -37.8470 O.2   363  THR363     -0.2717
     68  CB        11.9880   44.9130  -35.2660 C.3   363  THR363      0.1784
     69  OG1       12.6570   46.1680  -35.4440 O.3   363  THR363     -0.2211
     70  CG2       12.9480   43.8970  -34.6570 C.3   363  THR363      0.0376
     71  N          9.2180   45.3410  -36.4180 N.am  364  SER364     -0.1937
     72  CA         8.2860   46.4610  -36.2960 C.3   364  SER364      0.2055
     73  C          8.0860   46.6850  -34.8100 C.2   364  SER364      0.2642
     74  O          8.6240   45.9460  -33.9850 O.2   364  SER364     -0.2714
     75  CB         6.9420   46.1410  -36.9450 C.3   364  SER364      0.2130
     76  OG         6.1490   45.3520  -36.0740 O.3   364  SER364     -0.2179
     77  N          7.2870   47.6790  -34.4630 N.am  365  GLU365     -0.1976
     78  CA         6.9700   47.9220  -33.0580 C.3   365  GLU365      0.1602
     79  C          6.5070   46.6570  -32.3280 C.2   365  GLU365      0.2287
     80  O          6.8020   46.4820  -31.1520 O.2   365  GLU365     -0.2864
     81  CB         5.9150   49.0230  -32.9300 C.3   365  GLU365      0.0415
     82  CG         5.6930   49.5200  -31.4990 C.3   365  GLU365      0.1163
     83  CD         4.8250   50.7690  -31.4460 C.2   365  GLU365      0.3649
     84  OE1        3.7660   50.7860  -32.1110 O.co2 365  GLU365     -0.2457
     85  OE2        5.2150   51.7320  -30.7460 O.co2 365  GLU365     -0.2457
     86  N          6.7640   43.2380  -33.7440 N.3   367  ARG367     -0.1231
     87  CA         7.2130   42.0790  -34.5200 C.3   367  ARG367      0.1694
     88  C          8.7310   41.9260  -34.5220 C.2   367  ARG367      0.2591
     89  O          9.4500   42.8920  -34.7490 O.2   367  ARG367     -0.2718
     90  CB         6.7480   42.2330  -35.9690 C.3   367  ARG367      0.0321
     91  CG         7.0090   41.0340  -36.8870 C.3   367  ARG367      0.0489
     92  CD         6.6900   41.3900  -38.3540 C.3   367  ARG367      0.2205
     93  NE         7.8620   41.9630  -39.0260 N.pl3 367  ARG367     -0.0865
     94  CZ         7.9160   43.1370  -39.6560 C.cat 367  ARG367      0.5346
     95  NH1        9.0580   43.5200  -40.2190 N.pl3 367  ARG367      0.1354
     96  NH2        6.8570   43.9310  -39.7500 N.pl3 367  ARG367      0.1354
     97  N          9.2070   40.7080  -34.2760 N.am  368  ILE368     -0.1980
     98  CA        10.6030   40.3480  -34.4910 C.3   368  ILE368      0.1595
     99  C         10.6520   39.3380  -35.6360 C.2   368  ILE368      0.2287
    100  O          9.9530   38.3290  -35.6010 O.2   368  ILE368     -0.2864
    101  CB        11.2390   39.7010  -33.2400 C.3   368  ILE368      0.0276
    102  CG1       11.2530   40.6790  -32.0620 C.3   368  ILE368      0.0022
    103  CG2       12.6640   39.2470  -33.5310 C.3   368  ILE368      0.0022
    104  CD1       11.4740   39.9980  -30.6990 C.3   368  ILE368      0.0001
@<TRIPOS>BOND
     1    95    94    1
     2    96    94    1
     3    94    93    2
     4    93    92    1
     5    92    91    1
     6    67    66    2
     7    64    65    1
     8    66    65    1
     9    66    71   am
    10    75    72    1
    11    75    76    1
    12    91    90    1
    13    65    68    1
    14    71    72    1
    15    72    73    1
    16    90    87    1
    17    99   100    2
    18    99    98    1
    19    69    68    1
    20    68    70    1
    21    73    77   am
    22    73    74    2
    23    89    88    2
    24    88    87    1
    25    88    97   am
    26    87    86    1
    27    98    97    1
    28    98   101    1
    29    77    78    1
    30   103   101    1
    31   101   102    1
    32    78    81    1
    33    78    79    1
    34    81    82    1
    35    79    80    2
    36    84    83   ar
    37   102   104    1
    38    82    83    1
    39    83    85   ar
    40     7     8    1
    41     7     6    1
    42     6     5    1
    43    58    56    1
    44    57    56    1
    45    17    16    1
    46    15    16    1
    47    15    14    1
    48    56    53    1
    49     5     2    1
    50    55    54    2
    51    53    54    1
    52    53    52    1
    53    13    14    1
    54    13    10    1
    55    50    49    1
    56     9    10    1
    57     9     3   am
    58    54    59   am
    59    10    11    1
    60     3     2    1
    61     3     4    2
    62     2     1    1
    63    52    47   am
    64    48    47    2
    65    47    46    1
    66    49    46    1
    67    49    51    1
    68    59    60    1
    69    62    61    2
    70    11    18   am
    71    11    12    2
    72    46    45    1
    73    61    60    1
    74    60    63    1
    75    18    19    1
    76    45    43   am
    77    23    22    1
    78    19    22    1
    79    19    20    1
    80    27    26    2
    81    44    43    2
    82    43    42    1
    83    24    20   am
    84    24    25    1
    85    20    21    2
    86    26    25    1
    87    26    34   am
    88    41    42    1
    89    41    36   am
    90    28    25    1
    91    28    29    1
    92    35    36    1
    93    35    34    1
    94    35    38    1
    95    36    37    2
    96    34    40    1
    97    30    29   ar
    98    30    32   ar
    99    29    31   ar
   100    38    39    1
   101    40    39    1
   102    32    33   ar
   103    31    33   ar
