@<TRIPOS>MOLECULE
tmp/3aawC02.pdb
 85 82 0 0 0
SMALL
GASTEIGER

@<TRIPOS>ATOM
      1  N         28.0650   49.7960  -50.8690 N.3   255  ILE255     -0.1231
      2  CA        27.4240   50.9660  -51.4900 C.3   255  ILE255      0.1692
      3  C         27.9190   52.2190  -50.7760 C.2   255  ILE255      0.2593
      4  O         28.0420   52.2220  -49.5510 O.2   255  ILE255     -0.2718
      5  CB        25.8710   50.9610  -51.3820 C.3   255  ILE255      0.0266
      6  CG1       25.2830   49.5820  -51.6480 C.3   255  ILE255      0.0019
      7  CG2       25.2600   51.9450  -52.3660 C.3   255  ILE255      0.0020
      8  CD1       25.0960   48.7650  -50.3970 C.3   255  ILE255      0.0001
      9  N         28.1890   53.2770  -51.5340 N.am  256  SER256     -0.1938
     10  CA        28.6280   54.5480  -50.9540 C.3   256  SER256      0.2055
     11  C         27.4860   55.1660  -50.1590 C.2   256  SER256      0.2643
     12  O         26.3650   55.2710  -50.6570 O.2   256  SER256     -0.2714
     13  CB        29.0720   55.5270  -52.0450 C.3   256  SER256      0.2130
     14  OG        30.0330   54.9360  -52.9110 O.3   256  SER256     -0.2179
     15  N         27.7680   55.5830  -48.9270 N.am  257  ASP257     -0.1957
     16  CA        26.7340   56.1450  -48.0580 C.3   257  ASP257      0.1840
     17  C         26.5080   57.6270  -48.3500 C.2   257  ASP257      0.2622
     18  O         26.7890   58.4940  -47.5110 O.2   257  ASP257     -0.2715
     19  CB        27.1040   55.9360  -46.5900 C.3   257  ASP257      0.1450
     20  CG        25.9450   56.1790  -45.6580 C.2   257  ASP257      0.3671
     21  OD1       26.1490   56.0750  -44.4360 O.co2 257  ASP257     -0.2456
     22  OD2       24.8330   56.4680  -46.1400 O.co2 257  ASP257     -0.2456
     23  N         26.0000   57.8990  -49.5510 N.am  258  LYS258     -0.1964
     24  CA        25.6520   59.2470  -49.9820 C.3   258  LYS258      0.1713
     25  C         24.3040   59.1980  -50.7170 C.2   258  LYS258      0.2458
     26  O         23.9090   58.1360  -51.2100 O.2   258  LYS258     -0.2730
     27  CB        26.7570   59.8310  -50.8690 C.3   258  LYS258      0.0311
     28  CG        26.8200   59.2980  -52.3070 C.3   258  LYS258      0.0038
     29  CD        27.9670   59.9560  -53.0890 C.3   258  LYS258      0.0206
     30  CE        27.9010   59.6590  -54.5990 C.3   258  LYS258      0.1093
     31  NZ        28.4540   58.3100  -54.9710 N.3   258  LYS258     -0.1314
     32  N         23.5890   60.3370  -50.7880 N.am  259  PRO259     -0.2716
     33  CA        22.2450   60.3550  -51.3580 C.3   259  PRO259      0.1536
     34  C         22.1410   59.8220  -52.7920 C.2   259  PRO259      0.2599
     35  O         23.0230   60.0680  -53.6110 O.2   259  PRO259     -0.2715
     36  CB        21.8730   61.8400  -51.3190 C.3   259  PRO259      0.0310
     37  CG        22.6800   62.3990  -50.2170 C.3   259  PRO259      0.0237
     38  CD        23.9630   61.6530  -50.2380 C.3   259  PRO259      0.0939
     39  N         21.0630   59.0950  -53.0740 N.am  260  GLY260     -0.1941
     40  CA        20.7800   58.6010  -54.4200 C.3   260  GLY260      0.2014
     41  C         21.2020   57.1680  -54.6980 C.2   260  GLY260      0.2639
     42  O         20.8070   56.5970  -55.7120 O.2   260  GLY260     -0.2714
     43  N         22.0000   56.5790  -53.8100 N.am  261  GLU261     -0.1963
     44  CA        22.5560   55.2440  -54.0570 C.3   261  GLU261      0.1733
     45  C         21.5350   54.1220  -53.8290 C.2   261  GLU261      0.2616
     46  O         21.4540   53.1790  -54.6220 O.2   261  GLU261     -0.2715
     47  CB        23.8120   55.0220  -53.2170 C.3   261  GLU261      0.0429
     48  CG        24.9500   55.9840  -53.5550 C.3   261  GLU261      0.1163
     49  CD        25.4970   55.8000  -54.9650 C.2   261  GLU261      0.3649
     50  OE1       25.5880   56.7980  -55.7090 O.co2 261  GLU261     -0.2457
     51  OE2       25.8400   54.6590  -55.3330 O.co2 261  GLU261     -0.2457
     52  N         20.7520   54.2230  -52.7590 N.am  262  ALA262     -0.1963
     53  CA        19.6490   53.2930  -52.5520 C.3   262  ALA262      0.1728
     54  C         18.7330   53.3020  -53.7840 C.2   262  ALA262      0.2616
     55  O         18.3360   52.2450  -54.2880 O.2   262  ALA262     -0.2715
     56  CB        18.8750   53.6540  -51.2950 C.3   262  ALA262      0.0334
     57  N         18.4450   54.5040  -54.2820 N.am  263  ALA263     -0.1977
     58  CA        17.6030   54.6890  -55.4660 C.3   263  ALA263      0.1597
     59  C         18.1190   53.9400  -56.6940 C.2   263  ALA263      0.2287
     60  O         17.3330   53.3640  -57.4360 O.2   263  ALA263     -0.2864
     61  CB        17.4530   56.1670  -55.7820 C.3   263  ALA263      0.0319
     62  N         19.2700   47.8600  -44.1990 N.3   281  GLN281     -0.1245
     63  CA        20.5450   48.5540  -44.2880 C.3   281  GLN281      0.1566
     64  C         20.9070   49.0900  -42.9000 C.2   281  GLN281      0.2260
     65  O         20.1160   49.8030  -42.2740 O.2   281  GLN281     -0.2867
     66  CB        20.4480   49.7040  -45.2920 C.3   281  GLN281      0.0367
     67  CG        21.6790   50.5930  -45.3570 C.3   281  GLN281      0.0905
     68  CD        21.4480   51.8740  -46.1450 C.2   281  GLN281      0.2608
     69  OE1       21.6090   52.9800  -45.6170 O.2   281  GLN281     -0.2717
     70  NE2       21.0690   51.7330  -47.4090 N.am  281  GLN281     -0.0878
     71  N         28.3010   50.9940  -46.9740 N.3   291  THR291     -0.1218
     72  CA        27.4380   50.0750  -46.2410 C.3   291  THR291      0.1862
     73  C         26.9240   48.9900  -47.1730 C.2   291  THR291      0.2287
     74  O         27.2720   48.9640  -48.3590 O.2   291  THR291     -0.2866
     75  CB        26.2320   50.8020  -45.5730 C.3   291  THR291      0.1770
     76  OG1       25.6120   49.9230  -44.6290 O.3   291  THR291     -0.2211
     77  CG2       25.2010   51.2510  -46.6050 C.3   291  THR291      0.0375
     78  N         23.3190   46.7270  -48.4180 N.3   293  ILE293     -0.1245
     79  CA        21.8660   46.7070  -48.5080 C.3   293  ILE293      0.1561
     80  C         21.4280   45.2900  -48.8400 C.2   293  ILE293      0.2260
     81  O         21.8220   44.7530  -49.8640 O.2   293  ILE293     -0.2867
     82  CB        21.3470   47.6530  -49.6120 C.3   293  ILE293      0.0252
     83  CG1       21.6210   49.1070  -49.2330 C.3   293  ILE293      0.0019
     84  CG2       19.8440   47.4260  -49.8550 C.3   293  ILE293      0.0019
     85  CD1       21.0510   50.1160  -50.1990 C.3   293  ILE293      0.0001
@<TRIPOS>BOND
     1    60    59    2
     2    59    58    1
     3    61    58    1
     4    42    41    2
     5    50    49   ar
     6    58    57    1
     7    51    49   ar
     8    31    30    1
     9    49    48    1
    10    41    40    1
    11    41    43   am
    12    46    45    2
    13    30    29    1
    14    40    39    1
    15    55    54    2
    16    57    54   am
    17    44    45    1
    18    44    43    1
    19    44    47    1
    20    45    52   am
    21    54    53    1
    22    35    34    2
    23    48    47    1
    24    29    28    1
    25    39    34   am
    26    14    13    1
    27    34    33    1
    28    52    53    1
    29    53    56    1
    30     7     5    1
    31    28    27    1
    32    13    10    1
    33     6     5    1
    34     6     8    1
    35     9    10    1
    36     9     3   am
    37     2     5    1
    38     2     1    1
    39     2     3    1
    40    33    36    1
    41    33    32    1
    42    36    37    1
    43    26    25    2
    44    10    11    1
    45    27    24    1
    46    32    25   am
    47    32    38    1
    48     3     4    2
    49    25    24    1
    50    12    11    2
    51    38    37    1
    52    85    83    1
    53    11    15   am
    54    24    23    1
    55    81    80    2
    56    84    82    1
    57    82    83    1
    58    82    79    1
    59    23    17   am
    60    15    16    1
    61    80    79    1
    62    79    78    1
    63    74    73    2
    64    17    16    1
    65    17    18    2
    66    16    19    1
    67    70    68   am
    68    73    72    1
    69    71    72    1
    70    77    75    1
    71    19    20    1
    72    72    75    1
    73    68    69    2
    74    68    67    1
    75    22    20   ar
    76    20    21   ar
    77    75    76    1
    78    67    66    1
    79    66    63    1
    80    63    62    1
    81    63    64    1
    82    64    65    2
