@<TRIPOS>MOLECULE
tmp/3ab3A00.pdb
 176 168 0 0 0
SMALL
GASTEIGER

@<TRIPOS>ATOM
      1  N          6.4150    6.8180    3.3750 N.3    11  GLY11      -0.1210
      2  CA         6.5600    5.9370    2.2250 C.3    11  GLY11       0.1956
      3  C          5.7520    4.6470    2.3700 C.2    11  GLY11       0.2612
      4  O          5.6600    4.0580    3.4580 O.2    11  GLY11      -0.2717
      5  N          5.1560    4.2120    1.2660 N.am   12  GLU12      -0.1965
      6  CA         4.3590    2.9840    1.2060 C.3    12  GLU12       0.1733
      7  C          3.1420    3.0110    2.1110 C.2    12  GLU12       0.2617
      8  O          2.7560    1.9790    2.6550 O.2    12  GLU12      -0.2715
      9  CB         5.2230    1.7450    1.5630 C.3    12  GLU12       0.0429
     10  CG         6.4060    1.4590    0.6320 C.3    12  GLU12       0.1163
     11  CD         7.4710    0.5620    1.2820 C.2    12  GLU12       0.3649
     12  OE1        7.0990   -0.4280    1.9590 O.co2  12  GLU12      -0.2457
     13  OE2        8.6840    0.8380    1.1130 O.co2  12  GLU12      -0.2457
     14  N          2.5100    4.1610    2.2810 N.am   13  SER13      -0.1936
     15  CA         1.3490    4.1790    3.1580 C.3    13  SER13       0.2055
     16  C          0.0130    4.0130    2.4510 C.2    13  SER13       0.2644
     17  O         -1.0210    3.9210    3.1030 O.2    13  SER13      -0.2714
     18  CB         1.3500    5.4280    4.0340 C.3    13  SER13       0.2130
     19  OG         1.3540    6.6030    3.2610 O.3    13  SER13      -0.2179
     20  N          0.0290    3.9310    1.1250 N.am   14  GLY14      -0.1939
     21  CA        -1.2110    3.7460    0.3850 C.3    14  GLY14       0.2014
     22  C         -1.7130    4.9820   -0.3500 C.2    14  GLY14       0.2639
     23  O         -2.8310    4.9870   -0.8680 O.2    14  GLY14      -0.2714
     24  N         -0.9030    6.0290   -0.3960 N.am   15  LYS15      -0.1963
     25  CA        -1.2890    7.2660   -1.0660 C.3    15  LYS15       0.1728
     26  C         -1.7160    7.1020   -2.5340 C.2    15  LYS15       0.2617
     27  O         -2.8260    7.4920   -2.9030 O.2    15  LYS15      -0.2715
     28  CB        -0.1670    8.2820   -0.9680 C.3    15  LYS15       0.0311
     29  CG         0.0470    8.7850    0.4400 C.3    15  LYS15       0.0038
     30  CD         1.2020    9.7590    0.5140 C.3    15  LYS15       0.0206
     31  CE         2.4730    9.1700   -0.0880 C.3    15  LYS15       0.1093
     32  NZ         2.9510    7.9430    0.6350 N.3    15  LYS15      -0.1314
     33  N         -0.8710    6.4950   -3.3630 N.am   16  SER16      -0.1936
     34  CA        -1.2230    6.3220   -4.7720 C.3    16  SER16       0.2055
     35  C         -2.3670    5.3450   -4.9730 C.2    16  SER16       0.2643
     36  O         -3.1610    5.4800   -5.9140 O.2    16  SER16      -0.2714
     37  CB        -0.0040    5.8620   -5.5770 C.3    16  SER16       0.2130
     38  OG         0.9960    6.8590   -5.5750 O.3    16  SER16      -0.2179
     39  N         -2.4490    4.3460   -4.1010 N.am   17  THR17      -0.1950
     40  CA        -3.4980    3.3640   -4.2140 C.3    17  THR17       0.1897
     41  C         -4.8390    4.0360   -3.9270 C.2    17  THR17       0.2313
     42  O         -5.8610    3.6660   -4.4850 O.2    17  THR17      -0.2863
     43  CB        -3.2760    2.2060   -3.2280 C.3    17  THR17       0.1794
     44  OG1       -1.9190    1.7570   -3.3200 O.3    17  THR17      -0.2208
     45  CG2       -4.1770    1.0670   -3.5630 C.3    17  THR17       0.0378
     46  N          4.3790   -6.4100    0.8150 N.3   126  GLU126     -0.1231
     47  CA         3.5320   -7.5920    0.9170 C.3   126  GLU126      0.1699
     48  C          2.9270   -8.0030   -0.4280 C.2   126  GLU126      0.2592
     49  O          2.6090   -9.1900   -0.6430 O.2   126  GLU126     -0.2718
     50  CB         2.3890   -7.3990    1.9360 C.3   126  GLU126      0.0402
     51  CG         2.4200   -6.1200    2.7510 C.3   126  GLU126      0.1161
     52  CD         3.6610   -5.9820    3.6050 C.2   126  GLU126      0.3649
     53  OE1        3.9080   -6.8600    4.4680 O.co2 126  GLU126     -0.2457
     54  OE2        4.3840   -4.9770    3.4020 O.co2 126  GLU126     -0.2457
     55  N          2.7750   -7.0410   -1.3310 N.am  127  SER127     -0.1952
     56  CA         2.1890   -7.3290   -2.6320 C.3   127  SER127      0.1924
     57  C          2.9260   -8.3570   -3.4950 C.2   127  SER127      0.2314
     58  O          2.3010   -8.9920   -4.3400 O.2   127  SER127     -0.2863
     59  CB         2.0170   -6.0340   -3.4110 C.3   127  SER127      0.2116
     60  OG         2.7160   -5.0050   -2.7460 O.3   127  SER127     -0.2180
     61  N         -4.2130   -2.1270   -8.5380 N.3   151  LEU151     -0.1231
     62  CA        -4.1760   -1.5220   -7.2140 C.3   151  LEU151      0.1693
     63  C         -3.0090   -2.0860   -6.3910 C.2   151  LEU151      0.2592
     64  O         -2.4570   -1.3940   -5.5340 O.2   151  LEU151     -0.2718
     65  CB        -5.5180   -1.7600   -6.4890 C.3   151  LEU151      0.0284
     66  CG        -6.7230   -1.0000   -7.0730 C.3   151  LEU151      0.0019
     67  CD1       -8.0330   -1.5630   -6.5300 C.3   151  LEU151      0.0001
     68  CD2       -6.5880    0.5050   -6.7350 C.3   151  LEU151      0.0001
     69  N         -2.6340   -3.3390   -6.6490 N.am  152  LEU152     -0.1966
     70  CA        -1.5260   -3.9620   -5.9140 C.3   152  LEU152      0.1728
     71  C         -0.1380   -3.6430   -6.5380 C.2   152  LEU152      0.2616
     72  O          0.8780   -3.5940   -5.8420 O.2   152  LEU152     -0.2715
     73  CB        -1.7830   -5.4780   -5.7750 C.3   152  LEU152      0.0311
     74  CG        -2.8540   -5.7620   -4.6920 C.3   152  LEU152      0.0022
     75  CD1       -3.6290   -7.0680   -4.9410 C.3   152  LEU152      0.0001
     76  CD2       -2.1630   -5.7980   -3.3380 C.3   152  LEU152      0.0001
     77  N         -0.0960   -3.3760   -7.8360 N.am  153  ALA153     -0.1963
     78  CA         1.1740   -3.0080   -8.4730 C.3   153  ALA153      0.1728
     79  C          1.8420   -1.9780   -7.5810 C.2   153  ALA153      0.2616
     80  O          1.1670   -1.1380   -6.9900 O.2   153  ALA153     -0.2715
     81  CB         0.9200   -2.4080   -9.8450 C.3   153  ALA153      0.0334
     82  N          3.1650   -2.0430   -7.4840 N.am  154  ARG154     -0.1963
     83  CA         3.9300   -1.1330   -6.6460 C.3   154  ARG154      0.1729
     84  C          4.9110   -0.2750   -7.4210 C.2   154  ARG154      0.2616
     85  O          5.8750   -0.7740   -8.0170 O.2   154  ARG154     -0.2715
     86  CB         4.6980   -1.9170   -5.5810 C.3   154  ARG154      0.0348
     87  CG         5.7330   -1.1090   -4.7970 C.3   154  ARG154      0.0492
     88  CD         5.1350   -0.0150   -3.9030 C.3   154  ARG154      0.2205
     89  NE         6.1990    0.8230   -3.3520 N.pl3 154  ARG154     -0.0865
     90  CZ         6.0570    2.0920   -2.9780 C.cat 154  ARG154      0.5346
     91  NH1        4.8830    2.6840   -3.0780 N.pl3 154  ARG154      0.1354
     92  NH2        7.1050    2.7900   -2.5610 N.pl3 154  ARG154      0.1354
     93  N          4.6510    1.0300   -7.4250 N.am  155  ARG155     -0.1977
     94  CA         5.5520    1.9460   -8.0900 C.3   155  ARG155      0.1597
     95  C          5.8290    3.1400   -7.2100 C.2   155  ARG155      0.2287
     96  O          4.9680    3.9630   -6.9830 O.2   155  ARG155     -0.2864
     97  CB         5.0130    2.4120   -9.4410 C.3   155  ARG155      0.0334
     98  CG         5.9940    3.3810  -10.0690 C.3   155  ARG155      0.0492
     99  CD         5.9100    3.5360  -11.5690 C.3   155  ARG155      0.2205
    100  NE         6.8970    4.5470  -11.9460 N.pl3 155  ARG155     -0.0865
    101  CZ         7.0600    5.0540  -13.1630 C.cat 155  ARG155      0.5346
    102  NH1        6.2930    4.6370  -14.1710 N.pl3 155  ARG155      0.1354
    103  NH2        7.9760    6.0020  -13.3610 N.pl3 155  ARG155      0.1354
    104  N          6.3930    6.5660   -5.8150 N.3   157  THR157     -0.1218
    105  CA         6.1040    7.8680   -6.3850 C.3   157  THR157      0.1862
    106  C          7.2140    8.8520   -6.0830 C.2   157  THR157      0.2287
    107  O          7.7880    8.8490   -5.0050 O.2   157  THR157     -0.2866
    108  CB         4.7910    8.4340   -5.8260 C.3   157  THR157      0.1770
    109  OG1        3.7150    7.6000   -6.2540 O.3   157  THR157     -0.2211
    110  CG2        4.5300    9.8390   -6.3360 C.3   157  THR157      0.0375
    111  N          6.5040    9.8050   -0.1770 N.3   179  GLY179     -0.1210
    112  CA         6.6300    9.7470    1.2690 C.3   179  GLY179      0.1956
    113  C          7.9980    9.5080    1.8640 C.2   179  GLY179      0.2611
    114  O          8.1740    9.6770    3.0750 O.2   179  GLY179     -0.2717
    115  N          8.9730    9.1100    1.0510 N.am  180  GLN180     -0.1979
    116  CA        10.3340    8.9170    1.5810 C.3   180  GLN180      0.1601
    117  C         10.8230   10.2510    2.1440 C.2   180  GLN180      0.2287
    118  O         10.3270   11.3180    1.7640 O.2   180  GLN180     -0.2864
    119  CB        11.3030    8.4490    0.4830 C.3   180  GLN180      0.0394
    120  CG        11.1150    7.0110    0.0250 C.3   180  GLN180      0.0908
    121  CD         9.7320    6.7360   -0.5070 C.2   180  GLN180      0.2608
    122  OE1        9.1500    7.5600   -1.2200 O.2   180  GLN180     -0.2717
    123  NE2        9.1980    5.5740   -0.1830 N.am  180  GLN180     -0.0878
    124  N         -4.5890    2.8850    7.2960 N.3   245  ASN245     -0.1225
    125  CA        -4.7600    1.9830    6.1810 C.3   245  ASN245      0.1785
    126  C         -4.1870    0.5490    6.3460 C.2   245  ASN245      0.2597
    127  O         -3.6830    0.1830    7.4050 O.2   245  ASN245     -0.2718
    128  CB        -4.2020    2.7210    4.9650 C.3   245  ASN245      0.1169
    129  CG        -4.4790    2.0180    3.6560 C.2   245  ASN245      0.2627
    130  OD1       -5.6060    1.5790    3.3770 O.2   245  ASN245     -0.2716
    131  ND2       -3.4440    1.9200    2.8290 N.am  245  ASN245     -0.0877
    132  N         -4.2870   -0.2670    5.3040 N.am  246  LYS246     -0.1980
    133  CA        -3.7880   -1.6550    5.3540 C.3   246  LYS246      0.1596
    134  C         -4.3990   -2.4530    6.5180 C.2   246  LYS246      0.2287
    135  O         -3.7790   -3.3950    7.0320 O.2   246  LYS246     -0.2864
    136  CB        -2.2480   -1.6930    5.4600 C.3   246  LYS246      0.0298
    137  CG        -1.5240   -0.8620    4.3920 C.3   246  LYS246      0.0038
    138  CD        -0.3670   -1.6200    3.7720 C.3   246  LYS246      0.0206
    139  CE         0.8240   -0.7280    3.4410 C.3   246  LYS246      0.1093
    140  NZ         0.4450    0.4450    2.6440 N.3   246  LYS246     -0.1314
    141  N         -6.4910   -4.6300    6.5480 N.3   248  ASP248     -0.1225
    142  CA        -6.5430   -6.0400    6.2270 C.3   248  ASP248      0.1805
    143  C         -5.2150   -6.7040    6.6290 C.2   248  ASP248      0.2597
    144  O         -5.2010   -7.8170    7.1610 O.2   248  ASP248     -0.2718
    145  CB        -6.8580   -6.2120    4.7280 C.3   248  ASP248      0.1424
    146  CG        -5.7850   -5.5980    3.8070 C.2   248  ASP248      0.3668
    147  OD1       -5.1490   -4.5790    4.1850 O.co2 248  ASP248     -0.2456
    148  OD2       -5.5960   -6.1420    2.6870 O.co2 248  ASP248     -0.2456
    149  N         -4.1030   -6.0060    6.4180 N.am  249  LEU249     -0.1979
    150  CA        -2.7950   -6.5490    6.7960 C.3   249  LEU249      0.1596
    151  C         -2.5830   -6.5280    8.3050 C.2   249  LEU249      0.2287
    152  O         -1.8030   -7.3330    8.8330 O.2   249  LEU249     -0.2864
    153  CB        -1.6540   -5.7770    6.1210 C.3   249  LEU249      0.0297
    154  CG        -1.5760   -5.9910    4.6080 C.3   249  LEU249      0.0022
    155  CD1       -0.4090   -5.1620    4.0350 C.3   249  LEU249      0.0001
    156  CD2       -1.4170   -7.4950    4.2980 C.3   249  LEU249      0.0001
    157  N         -8.7940    0.0020    3.8860 N.3   298  THR298     -0.1203
    158  CA        -7.9860   -0.9730    3.1800 C.3   298  THR298      0.1994
    159  C         -8.0340   -0.3660    1.7610 C.2   298  THR298      0.2618
    160  O         -8.9410   -0.6070    0.9910 O.2   298  THR298     -0.2717
    161  CB        -8.5940   -2.3980    3.2590 C.3   298  THR298      0.1784
    162  OG1       -8.2340   -2.9840    4.5150 O.3   298  THR298     -0.2211
    163  CG2       -8.0600   -3.2900    2.1600 C.3   298  THR298      0.0376
    164  N         -7.0470    0.4530    1.4330 N.am  299  ALA299     -0.1965
    165  CA        -7.0570    1.1330    0.1430 C.3   299  ALA299      0.1728
    166  C         -7.2310    0.2610   -1.1020 C.2   299  ALA299      0.2616
    167  O         -7.6570    0.7660   -2.1470 O.2   299  ALA299     -0.2715
    168  CB        -5.8170    1.9910    0.0080 C.3   299  ALA299      0.0334
    169  N         -6.9460   -1.0340   -0.9970 N.am  300  ILE300     -0.1977
    170  CA        -7.0510   -1.8800   -2.1680 C.3   300  ILE300      0.1596
    171  C         -8.4280   -2.4390   -2.3760 C.2   300  ILE300      0.2287
    172  O         -8.6900   -3.0540   -3.4030 O.2   300  ILE300     -0.2864
    173  CB        -6.0630   -3.0520   -2.1140 C.3   300  ILE300      0.0276
    174  CG1       -6.2410   -3.8220   -0.7940 C.3   300  ILE300      0.0022
    175  CG2       -4.6390   -2.5200   -2.2990 C.3   300  ILE300      0.0022
    176  CD1       -5.9540   -5.3110   -0.9000 C.3   300  ILE300      0.0001
@<TRIPOS>BOND
     1   102   101    1
     2   103   101    1
     3   101   100    2
     4   100    99    1
     5    99    98    1
     6    98    97    1
     7    81    78    1
     8    97    94    1
     9    61    62    1
    10    78    77    1
    11    78    79    1
    12    94    93    1
    13    94    95    1
    14    85    84    2
    15    77    71   am
    16    79    82   am
    17    79    80    2
    18    82    83    1
    19    93    84   am
    20    84    83    1
    21    62    65    1
    22    62    63    1
    23    95    96    2
    24    66    68    1
    25    66    67    1
    26    66    65    1
    27    69    63   am
    28    69    70    1
    29    83    86    1
    30    71    70    1
    31    71    72    2
    32    63    64    2
    33   105   106    1
    34   105   108    1
    35   105   104    1
    36   110   108    1
    37   109   108    1
    38   106   107    2
    39    70    73    1
    40    36    35    2
    41    73    74    1
    42    86    87    1
    43    37    38    1
    44    37    34    1
    45    35    34    1
    46    35    39   am
    47    75    74    1
    48    87    88    1
    49    34    33    1
    50    74    76    1
    51    42    41    2
    52    58    57    2
    53    40    39    1
    54    40    41    1
    55    40    43    1
    56    88    89    1
    57    45    43    1
    58    57    56    1
    59    59    60    1
    60    59    56    1
    61   172   171    2
    62    33    26   am
    63    89    90    2
    64    44    43    1
    65    91    90    1
    66    90    92    1
    67    27    26    2
    68    56    55    1
    69    26    25    1
    70   171   170    1
    71   175   173    1
    72   170   173    1
    73   170   169    1
    74   167   166    2
    75   173   174    1
    76    55    48   am
    77   122   121    2
    78   166   169   am
    79   166   165    1
    80    25    28    1
    81    25    24    1
    82    28    29    1
    83   176   174    1
    84    23    22    2
    85    49    48    2
    86   121   123   am
    87   121   120    1
    88    48    47    1
    89    24    22   am
    90    22    21    1
    91   111   112    1
    92    31    30    1
    93    31    32    1
    94   168   165    1
    95   120   119    1
    96   165   164    1
    97    21    20    1
    98    29    30    1
    99   119   116    1
   100    10    11    1
   101    10     9    1
   102    46    47    1
   103    47    50    1
   104   160   159    2
   105   115   116    1
   106   115   113   am
   107    13    11   ar
   108    20    16   am
   109     6     5    1
   110     6     9    1
   111     6     7    1
   112     5     3   am
   113   112   113    1
   114    11    12   ar
   115   164   159   am
   116   116   117    1
   117   159   158    1
   118   118   117    2
   119   113   114    2
   120    50    51    1
   121     7    14   am
   122     7     8    2
   123   163   161    1
   124     2     3    1
   125     2     1    1
   126    14    15    1
   127     3     4    2
   128    16    17    2
   129    16    15    1
   130   140   139    1
   131   148   146   ar
   132    51    52    1
   133   131   129   am
   134    15    18    1
   135   158   161    1
   136   158   157    1
   137   161   162    1
   138    19    18    1
   139   130   129    2
   140    54    52   ar
   141   139   138    1
   142    52    53   ar
   143   129   128    1
   144   138   137    1
   145   146   147   ar
   146   146   145    1
   147   155   154    1
   148   156   154    1
   149   137   136    1
   150   154   153    1
   151   145   142    1
   152   128   125    1
   153   132   133    1
   154   132   126   am
   155   133   136    1
   156   133   134    1
   157   153   150    1
   158   125   126    1
   159   125   124    1
   160   142   141    1
   161   142   143    1
   162   126   127    2
   163   149   143   am
   164   149   150    1
   165   134   135    2
   166   143   144    2
   167   150   151    1
   168   151   152    2
