@<TRIPOS>MOLECULE
tmp/3ab4A01.pdb
 89 86 0 0 0
SMALL
GASTEIGER

@<TRIPOS>ATOM
      1  N        -32.9760   36.5980   28.1380 N.3   316  MET316     -0.1230
      2  CA       -32.8770   36.2950   29.5610 C.3   316  MET316      0.1702
      3  C        -32.6560   37.5390   30.4200 C.2   316  MET316      0.2592
      4  O        -32.8060   37.4750   31.6370 O.2   316  MET316     -0.2718
      5  CB       -31.7730   35.2550   29.8230 C.3   316  MET316      0.0401
      6  CG       -30.3430   35.7750   29.8000 C.3   316  MET316      0.0596
      7  SD       -29.1670   34.4660   30.2070 S.3   316  MET316     -0.1393
      8  CE       -29.1160   33.5060   28.6940 C.3   316  MET316      0.0692
      9  N        -32.2850   38.6610   29.8110 N.am  317  LYS317     -0.1980
     10  CA       -32.0400   39.8840   30.5820 C.3   317  LYS317      0.1596
     11  C        -33.2470   40.2920   31.4400 C.2   317  LYS317      0.2287
     12  O        -33.0920   40.5690   32.6280 O.2   317  LYS317     -0.2864
     13  CB       -31.6640   41.0450   29.6640 C.3   317  LYS317      0.0298
     14  CG       -31.3840   42.3410   30.4180 C.3   317  LYS317      0.0038
     15  CD       -31.1470   43.4980   29.4450 C.3   317  LYS317      0.0206
     16  CE       -30.9210   44.8400   30.1510 C.3   317  LYS317      0.1093
     17  NZ       -31.2040   45.9820   29.2010 N.3   317  LYS317     -0.1314
     18  N        -36.1630   38.4690   31.7410 N.3   319  HIS319     -0.1227
     19  CA       -37.0560   37.3480   31.9560 C.3   319  HIS319      0.1737
     20  C        -36.5950   36.4180   33.0700 C.2   319  HIS319      0.2438
     21  O        -35.5720   35.7760   32.9410 O.2   319  HIS319     -0.2733
     22  CB       -37.2580   36.6160   30.6410 C.3   319  HIS319      0.0758
     23  CG       -38.0870   37.3930   29.6720 C.ar  319  HIS319      0.0818
     24  ND1      -37.6180   37.8050   28.4450 N.ar  319  HIS319     -0.2268
     25  CD2      -39.3470   37.8680   29.7700 C.ar  319  HIS319      0.1154
     26  CE1      -38.5610   38.4810   27.8160 C.ar  319  HIS319      0.1986
     27  NE2      -39.6200   38.5360   28.6010 N.ar  319  HIS319     -0.2212
     28  N        -37.3470   36.3840   34.1870 N.am  320  PRO320     -0.2729
     29  CA       -37.0760   35.5750   35.3860 C.3   320  PRO320      0.1401
     30  C        -36.9640   34.0530   35.2420 C.2   320  PRO320      0.2269
     31  O        -36.3470   33.4100   36.1020 O.2   320  PRO320     -0.2865
     32  CB       -38.2670   35.8900   36.3010 C.3   320  PRO320      0.0296
     33  CG       -38.6700   37.2490   35.9420 C.3   320  PRO320      0.0237
     34  CD       -38.3590   37.4220   34.4610 C.3   320  PRO320      0.0939
     35  N        -35.3570   31.8070   33.1610 N.3   322  VAL322     -0.1231
     36  CA       -34.4140   31.0950   32.2790 C.3   322  VAL322      0.1692
     37  C        -33.3820   30.2500   32.9980 C.2   322  VAL322      0.2592
     38  O        -33.1800   29.0900   32.6350 O.2   322  VAL322     -0.2718
     39  CB       -33.7300   32.0390   31.2440 C.3   322  VAL322      0.0266
     40  CG1      -33.2150   33.2320   31.9200 C.3   322  VAL322      0.0020
     41  CG2      -32.6050   31.3280   30.4980 C.3   322  VAL322      0.0020
     42  N        -32.7170   30.8060   34.0030 N.am  323  THR323     -0.1953
     43  CA       -31.8180   29.9880   34.8350 C.3   323  THR323      0.1897
     44  C        -32.5030   28.7100   35.3200 C.2   323  THR323      0.2313
     45  O        -31.9250   27.6320   35.2250 O.2   323  THR323     -0.2863
     46  CB       -31.3270   30.7390   36.0410 C.3   323  THR323      0.1794
     47  OG1      -30.9830   32.0480   35.6350 O.3   323  THR323     -0.2208
     48  CG2      -30.1060   30.0730   36.5990 C.3   323  THR323      0.0378
     49  N        -21.8750   33.8410   34.9620 N.3   342  THR342     -0.1203
     50  CA       -22.8450   34.5240   34.1290 C.3   342  THR342      0.1994
     51  C        -22.3570   35.8610   33.5960 C.2   342  THR342      0.2619
     52  O        -21.3760   36.4410   34.0830 O.2   342  THR342     -0.2717
     53  CB       -24.1610   34.8360   34.9040 C.3   342  THR342      0.1784
     54  OG1      -23.9220   35.8730   35.8720 O.3   342  THR342     -0.2211
     55  CG2      -24.7240   33.5820   35.5760 C.3   342  THR342      0.0376
     56  N        -23.0760   36.3210   32.5790 N.am  343  SER343     -0.1937
     57  CA       -23.1270   37.7220   32.2230 C.3   343  SER343      0.2055
     58  C        -24.5970   38.0520   32.1500 C.2   343  SER343      0.2642
     59  O        -25.4480   37.1760   32.2620 O.2   343  SER343     -0.2714
     60  CB       -22.4530   38.0000   30.8770 C.3   343  SER343      0.2130
     61  OG       -23.3700   37.8500   29.8100 O.3   343  SER343     -0.2179
     62  N        -24.8950   39.3200   31.9510 N.am  344  GLU344     -0.1976
     63  CA       -26.2790   39.7800   31.9020 C.3   344  GLU344      0.1602
     64  C        -27.1660   38.9270   30.9720 C.2   344  GLU344      0.2287
     65  O        -28.3180   38.6960   31.2710 O.2   344  GLU344     -0.2864
     66  CB       -26.3040   41.2460   31.4830 C.3   344  GLU344      0.0415
     67  CG       -27.6590   41.8730   31.5940 C.3   344  GLU344      0.1163
     68  CD       -27.6280   43.3760   31.4260 C.2   344  GLU344      0.3649
     69  OE1      -28.4250   44.0400   32.1270 O.co2 344  GLU344     -0.2457
     70  OE2      -26.8200   43.8780   30.5980 O.co2 344  GLU344     -0.2457
     71  N        -26.0980   35.7470   29.5040 N.3   346  ARG346     -0.1231
     72  CA       -25.4810   34.4370   29.2880 C.3   346  ARG346      0.1694
     73  C        -25.3630   33.6380   30.5770 C.2   346  ARG346      0.2591
     74  O        -24.9730   34.1640   31.6080 O.2   346  ARG346     -0.2718
     75  CB       -24.0890   34.5950   28.6660 C.3   346  ARG346      0.0321
     76  CG       -23.1720   33.3730   28.8580 C.3   346  ARG346      0.0489
     77  CD       -21.8540   33.5140   28.0850 C.3   346  ARG346      0.2205
     78  NE       -21.0210   34.5850   28.6200 N.pl3 346  ARG346     -0.0865
     79  CZ       -20.3500   34.5280   29.7770 C.cat 346  ARG346      0.5346
     80  NH1      -20.3930   33.4570   30.5540 N.pl3 346  ARG346      0.1354
     81  NH2      -19.6380   35.5750   30.1800 N.pl3 346  ARG346      0.1354
     82  N        -25.7100   32.3590   30.5010 N.am  347  ILE347     -0.1980
     83  CA       -25.4460   31.4120   31.5610 C.3   347  ILE347      0.1595
     84  C        -24.3810   30.4620   31.0470 C.2   347  ILE347      0.2287
     85  O        -24.5280   29.9000   29.9560 O.2   347  ILE347     -0.2864
     86  CB       -26.6740   30.6170   31.9040 C.3   347  ILE347      0.0276
     87  CG1      -27.7990   31.5590   32.3510 C.3   347  ILE347      0.0022
     88  CG2      -26.3350   29.6100   32.9900 C.3   347  ILE347      0.0022
     89  CD1      -29.1850   30.9900   32.1800 C.3   347  ILE347      0.0001
@<TRIPOS>BOND
     1    26    24   ar
     2    26    27   ar
     3    77    78    1
     4    77    76    1
     5     1     2    1
     6    24    23   ar
     7    27    25   ar
     8    78    79    2
     9    75    76    1
    10    75    72    1
    11     8     7    1
    12    17    16    1
    13    72    71    1
    14    72    73    1
    15    15    16    1
    16    15    14    1
    17     2     5    1
    18     2     3    1
    19    13    14    1
    20    13    10    1
    21    23    25   ar
    22    23    22    1
    23    79    81    1
    24    79    80    1
    25     6     5    1
    26     6     7    1
    27    61    60    1
    28     9     3   am
    29     9    10    1
    30    85    84    2
    31     3     4    2
    32    41    39    1
    33    82    73   am
    34    82    83    1
    35    73    74    2
    36    10    11    1
    37    70    68   ar
    38    22    19    1
    39    60    57    1
    40    64    65    2
    41    64    63    1
    42    84    83    1
    43    39    40    1
    44    39    36    1
    45    68    67    1
    46    68    69   ar
    47    11    12    2
    48    66    67    1
    49    66    63    1
    50    83    86    1
    51    18    19    1
    52    63    62    1
    53    86    87    1
    54    86    88    1
    55    62    58   am
    56    19    20    1
    57    58    57    1
    58    58    59    2
    59    89    87    1
    60    57    56    1
    61    36    37    1
    62    36    35    1
    63    56    51   am
    64    38    37    2
    65    21    20    2
    66    37    42   am
    67    20    28   am
    68    51    52    2
    69    51    50    1
    70    42    43    1
    71    50    53    1
    72    50    49    1
    73    28    34    1
    74    28    29    1
    75    34    33    1
    76    43    44    1
    77    43    46    1
    78    53    55    1
    79    53    54    1
    80    45    44    2
    81    30    29    1
    82    30    31    2
    83    29    32    1
    84    47    46    1
    85    33    32    1
    86    46    48    1
