@<TRIPOS>MOLECULE
tmp/3ab4A00.pdb
 80 77 0 0 0
SMALL
GASTEIGER

@<TRIPOS>ATOM
      1  N         -7.0140   31.3210   50.0950 N.3   236  ILE236     -0.1231
      2  CA        -6.4180   32.6360   49.8520 C.3   236  ILE236      0.1692
      3  C         -6.9660   33.5670   50.9170 C.2   236  ILE236      0.2593
      4  O         -8.1640   33.5580   51.1750 O.2   236  ILE236     -0.2718
      5  CB        -6.7480   33.1700   48.4490 C.3   236  ILE236      0.0266
      6  CG1       -6.4620   32.0870   47.4050 C.3   236  ILE236      0.0019
      7  CG2       -5.9400   34.4320   48.1600 C.3   236  ILE236      0.0020
      8  CD1       -6.3100   32.6000   45.9550 C.3   236  ILE236      0.0001
      9  N         -6.1040   34.3460   51.5560 N.am  237  SER237     -0.1938
     10  CA        -6.5580   35.2280   52.6450 C.3   237  SER237      0.2055
     11  C         -7.3810   36.3870   52.0860 C.2   237  SER237      0.2643
     12  O         -7.0270   36.9720   51.0610 O.2   237  SER237     -0.2714
     13  CB        -5.3770   35.7520   53.4830 C.3   237  SER237      0.2130
     14  OG        -4.2620   36.0900   52.6640 O.3   237  SER237     -0.2179
     15  N         -8.4850   36.7040   52.7620 N.am  238  ASP238     -0.1957
     16  CA        -9.3940   37.7640   52.3180 C.3   238  ASP238      0.1840
     17  C         -8.8450   39.1440   52.6720 C.2   238  ASP238      0.2622
     18  O         -9.2780   39.7730   53.6310 O.2   238  ASP238     -0.2715
     19  CB       -10.8030   37.5690   52.9130 C.3   238  ASP238      0.1450
     20  CG       -11.8670   38.4120   52.2010 C.2   238  ASP238      0.3671
     21  OD1      -12.6980   39.0340   52.9050 O.co2 238  ASP238     -0.2456
     22  OD2      -11.8630   38.4640   50.9460 O.co2 238  ASP238     -0.2456
     23  N         -7.8820   39.5980   51.8810 N.am  239  LYS239     -0.1964
     24  CA        -7.2360   40.8850   52.0970 C.3   239  LYS239      0.1713
     25  C         -6.8280   41.4630   50.7370 C.2   239  LYS239      0.2458
     26  O         -6.5360   40.7030   49.8250 O.2   239  LYS239     -0.2730
     27  CB        -6.0140   40.7060   53.0100 C.3   239  LYS239      0.0311
     28  CG        -6.3860   40.8960   54.4820 C.3   239  LYS239      0.0038
     29  CD        -5.0200   41.0080   55.2050 C.3   239  LYS239      0.0206
     30  CE        -5.0960   40.2530   56.5230 C.3   239  LYS239      0.1093
     31  NZ        -5.1280   38.7660   56.2750 N.3   239  LYS239     -0.1314
     32  N         -6.8140   42.8030   50.5930 N.am  240  PRO240     -0.2716
     33  CA        -6.4350   43.4310   49.3230 C.3   240  PRO240      0.1536
     34  C         -5.0650   42.9910   48.8180 C.2   240  PRO240      0.2599
     35  O         -4.1220   42.9140   49.6000 O.2   240  PRO240     -0.2715
     36  CB        -6.3930   44.9180   49.6670 C.3   240  PRO240      0.0310
     37  CG        -7.2650   45.0650   50.8400 C.3   240  PRO240      0.0237
     38  CD        -7.2060   43.8020   51.6050 C.3   240  PRO240      0.0939
     39  N         -4.9650   42.7060   47.5260 N.am  241  GLY241     -0.1941
     40  CA        -3.6950   42.3440   46.9050 C.3   241  GLY241      0.2014
     41  C         -3.4290   40.8530   46.8080 C.2   241  GLY241      0.2639
     42  O         -2.4720   40.4270   46.1480 O.2   241  GLY241     -0.2714
     43  N         -4.2610   40.0490   47.4600 N.am  242  GLU242     -0.1963
     44  CA        -4.0640   38.6040   47.4260 C.3   242  GLU242      0.1733
     45  C         -4.4650   38.0330   46.0660 C.2   242  GLU242      0.2616
     46  O         -3.7150   37.2500   45.4870 O.2   242  GLU242     -0.2715
     47  CB        -4.7760   37.9300   48.5910 C.3   242  GLU242      0.0429
     48  CG        -4.1400   38.2850   49.9310 C.3   242  GLU242      0.1163
     49  CD        -2.6530   37.8940   50.0070 C.2   242  GLU242      0.3649
     50  OE1       -2.3340   36.7280   49.7140 O.co2 242  GLU242     -0.2457
     51  OE2       -1.8040   38.7420   50.3540 O.co2 242  GLU242     -0.2457
     52  N         -5.5990   38.4660   45.5230 N.am  243  ALA243     -0.1977
     53  CA        -5.9580   38.0970   44.1540 C.3   243  ALA243      0.1597
     54  C         -4.8290   38.4200   43.1570 C.2   243  ALA243      0.2287
     55  O         -4.5520   37.6240   42.2800 O.2   243  ALA243     -0.2864
     56  CB        -7.2540   38.7730   43.7360 C.3   243  ALA243      0.0319
     57  N        -14.6520   33.8480   41.9360 N.3   262  GLN262     -0.1245
     58  CA       -14.4310   33.8840   43.3650 C.3   262  GLN262      0.1566
     59  C        -15.7690   34.1820   44.0090 C.2   262  GLN262      0.2260
     60  O        -16.4350   35.1550   43.6570 O.2   262  GLN262     -0.2867
     61  CB       -13.4010   34.9540   43.7260 C.3   262  GLN262      0.0367
     62  CG       -13.4010   35.3550   45.1870 C.3   262  GLN262      0.0905
     63  CD       -12.3350   36.3840   45.5250 C.2   262  GLN262      0.2608
     64  OE1      -11.2220   36.3340   45.0010 O.2   262  GLN262     -0.2717
     65  NE2      -12.6680   37.3160   46.4170 N.am  262  GLN262     -0.0878
     66  N        -10.8090   32.6610   51.3150 N.3   270  THR270     -0.1218
     67  CA       -11.6540   32.3680   50.1750 C.3   270  THR270      0.1862
     68  C        -10.8290   31.5000   49.2390 C.2   270  THR270      0.2287
     69  O         -9.7030   31.1100   49.5710 O.2   270  THR270     -0.2866
     70  CB       -12.1570   33.6590   49.4470 C.3   270  THR270      0.1770
     71  OG1      -11.1990   34.0910   48.4690 O.3   270  THR270     -0.2211
     72  CG2      -12.3920   34.7910   50.4280 C.3   270  THR270      0.0375
     73  N        -10.1130   30.7210   44.7870 N.3   272  ILE272     -0.1245
     74  CA       -10.2550   31.2920   43.4560 C.3   272  ILE272      0.1561
     75  C        -10.0790   30.2080   42.4180 C.2   272  ILE272      0.2260
     76  O         -9.1080   29.4740   42.4840 O.2   272  ILE272     -0.2867
     77  CB        -9.2190   32.4310   43.2100 C.3   272  ILE272      0.0252
     78  CG1       -9.5040   33.6210   44.1290 C.3   272  ILE272      0.0019
     79  CG2       -9.2410   32.8550   41.7650 C.3   272  ILE272      0.0019
     80  CD1       -8.5490   34.8030   43.9630 C.3   272  ILE272      0.0001
@<TRIPOS>BOND
     1    79    77    1
     2    57    58    1
     3    55    54    2
     4    75    76    2
     5    75    74    1
     6    54    53    1
     7    77    74    1
     8    77    78    1
     9    58    61    1
    10    58    59    1
    11    74    73    1
    12    60    59    2
    13    61    62    1
    14    56    53    1
    15    80    78    1
    16    53    52    1
    17    64    63    2
    18    62    63    1
    19    46    45    2
    20    52    45   am
    21    63    65   am
    22     8     6    1
    23    45    44    1
    24    42    41    2
    25    41    40    1
    26    41    43   am
    27    40    39    1
    28     6     5    1
    29    44    43    1
    30    44    47    1
    31    39    34   am
    32     7     5    1
    33     5     2    1
    34    71    70    1
    35    47    48    1
    36    34    33    1
    37    34    35    2
    38    68    69    2
    39    68    67    1
    40    33    36    1
    41    33    32    1
    42    70    67    1
    43    70    72    1
    44    36    37    1
    45    50    49   ar
    46    26    25    2
    47     2     1    1
    48     2     3    1
    49    48    49    1
    50    49    51   ar
    51    67    66    1
    52    32    25   am
    53    32    38    1
    54    25    24    1
    55    37    38    1
    56     3     4    2
    57     3     9   am
    58    22    20   ar
    59    12    11    2
    60     9    10    1
    61    23    24    1
    62    23    17   am
    63    11    10    1
    64    11    15   am
    65    24    27    1
    66    20    21   ar
    67    20    19    1
    68    16    17    1
    69    16    15    1
    70    16    19    1
    71    10    13    1
    72    14    13    1
    73    17    18    2
    74    27    28    1
    75    28    29    1
    76    29    30    1
    77    31    30    1
