@<TRIPOS>MOLECULE
tmp/3ab6A00.pdb
 183 180 0 0 0
SMALL
GASTEIGER

@<TRIPOS>ATOM
      1  N         19.4900   -9.1170  -21.7930 N.3    29  ASP29      -0.1225
      2  CA        18.5380   -8.0310  -21.6010 C.3    29  ASP29       0.1805
      3  C         19.0860   -6.6660  -21.9910 C.2    29  ASP29       0.2597
      4  O         19.9770   -6.1220  -21.3360 O.2    29  ASP29      -0.2718
      5  CB        18.0670   -7.9870  -20.1440 C.3    29  ASP29       0.1424
      6  CG        17.0720   -6.8690  -19.8890 C.2    29  ASP29       0.3668
      7  OD1       15.9800   -6.8960  -20.4930 O.co2  29  ASP29      -0.2456
      8  OD2       17.3830   -5.9590  -19.0920 O.co2  29  ASP29      -0.2456
      9  N         18.5490   -6.1240  -23.0760 N.am   30  MET30      -0.1979
     10  CA        18.9450   -4.8120  -23.5500 C.3    30  MET30       0.1605
     11  C         20.4480   -4.5870  -23.6790 C.2    30  MET30       0.2287
     12  O         20.9800   -3.5950  -23.1770 O.2    30  MET30      -0.2864
     13  CB        18.3320   -3.7470  -22.6360 C.3    30  MET30       0.0413
     14  CG        16.8180   -3.6460  -22.7680 C.3    30  MET30       0.0598
     15  SD        15.9990   -2.9040  -21.3440 S.3    30  MET30      -0.1393
     16  CE        14.7860   -4.1720  -20.9500 C.3    30  MET30       0.0692
     17  N         21.7800  -10.6540  -17.8300 N.3    34  SER34      -0.1217
     18  CA        21.2550  -10.4160  -16.4900 C.3    34  SER34       0.1889
     19  C         21.1860  -11.8220  -15.9120 C.2    34  SER34       0.2288
     20  O         20.6620  -12.7260  -16.5590 O.2    34  SER34      -0.2866
     21  CB        19.8610   -9.8010  -16.5580 C.3    34  SER34       0.2089
     22  OG        19.9080   -8.5340  -17.1830 O.3    34  SER34      -0.2183
     23  N         18.5260  -11.0840  -11.2150 N.3    39  GLN39      -0.1231
     24  CA        18.8300  -10.6870  -12.5850 C.3    39  GLN39       0.1698
     25  C         19.8020   -9.5140  -12.6190 C.2    39  GLN39       0.2592
     26  O         19.5420   -8.4740  -13.2220 O.2    39  GLN39      -0.2718
     27  CB        17.5300  -10.3500  -13.3180 C.3    39  GLN39       0.0381
     28  CG        16.7250  -11.6050  -13.6560 C.3    39  GLN39       0.0905
     29  CD        17.4420  -12.4680  -14.6750 C.2    39  GLN39       0.2608
     30  OE1       17.5070  -12.1190  -15.8520 O.2    39  GLN39      -0.2717
     31  NE2       18.0110  -13.5870  -14.2240 N.am   39  GLN39      -0.0878
     32  N         20.9340   -9.7150  -11.9580 N.am   40  ILE40      -0.1966
     33  CA        21.9840   -8.7160  -11.8570 C.3    40  ILE40       0.1727
     34  C         22.9210   -8.7440  -13.0540 C.2    40  ILE40       0.2616
     35  O         23.3480   -9.8080  -13.5030 O.2    40  ILE40      -0.2715
     36  CB        22.7970   -8.9390  -10.5670 C.3    40  ILE40       0.0290
     37  CG1       21.8880   -8.7290   -9.3570 C.3    40  ILE40       0.0022
     38  CG2       23.9890   -7.9920  -10.5140 C.3    40  ILE40       0.0023
     39  CD1       22.5170   -9.1310   -8.0410 C.3    40  ILE40       0.0001
     40  N         23.2130   -7.5620  -13.5850 N.am   41  LYS41      -0.1977
     41  CA        24.1160   -7.4430  -14.7170 C.3    41  LYS41       0.1596
     42  C         25.5310   -7.3140  -14.1740 C.2    41  LYS41       0.2287
     43  O         25.7200   -7.0410  -12.9870 O.2    41  LYS41      -0.2864
     44  CB        23.7440   -6.2250  -15.5570 C.3    41  LYS41       0.0298
     45  CG        22.3890   -6.3670  -16.2210 C.3    41  LYS41       0.0038
     46  CD        22.0870   -5.1930  -17.1370 C.3    41  LYS41       0.0206
     47  CE        20.8330   -5.4630  -17.9410 C.3    41  LYS41       0.1093
     48  NZ        21.0070   -6.6500  -18.8150 N.3    41  LYS41      -0.1314
     49  N         27.7820   -5.0020  -14.6880 N.3    43  ALA43      -0.1231
     50  CA        28.0770   -3.6380  -14.2540 C.3    43  ALA43       0.1694
     51  C         27.5450   -3.3900  -12.8440 C.2    43  ALA43       0.2592
     52  O         28.2040   -2.7700  -12.0120 O.2    43  ALA43      -0.2718
     53  CB        27.4560   -2.6380  -15.2230 C.3    43  ALA43       0.0304
     54  N         26.3340   -3.8730  -12.5990 N.am   44  TYR44      -0.1976
     55  CA        25.6800   -3.7320  -11.3100 C.3    44  TYR44       0.1639
     56  C         26.5240   -4.4360  -10.2460 C.2    44  TYR44       0.2290
     57  O         26.7410   -3.9010   -9.1580 O.2    44  TYR44      -0.2864
     58  CB        24.2810   -4.3520  -11.4040 C.3    44  TYR44       0.0560
     59  CG        23.3780   -4.1300  -10.2120 C.ar   44  TYR44      -0.0198
     60  CD1       23.5540   -4.8510   -9.0320 C.ar   44  TYR44      -0.0009
     61  CD2       22.2970   -3.2490  -10.2910 C.ar   44  TYR44      -0.0009
     62  CE1       22.6680   -4.7070   -7.9630 C.ar   44  TYR44       0.0417
     63  CE2       21.4100   -3.0960   -9.2310 C.ar   44  TYR44       0.0417
     64  CZ        21.5990   -3.8330   -8.0710 C.ar   44  TYR44       0.1957
     65  OH        20.7020   -3.7120   -7.0330 O.3    44  TYR44      -0.2866
     66  N         29.7630   -5.0930  -10.3430 N.3    46  ILE46      -0.1231
     67  CA        31.0040   -4.3720  -10.1020 C.3    46  ILE46       0.1692
     68  C         30.7170   -3.2080   -9.1550 C.2    46  ILE46       0.2592
     69  O         31.4330   -2.9970   -8.1750 O.2    46  ILE46      -0.2718
     70  CB        31.5990   -3.8300  -11.4230 C.3    46  ILE46       0.0266
     71  CG1       32.1100   -4.9980  -12.2720 C.3    46  ILE46       0.0019
     72  CG2       32.7080   -2.8330  -11.1300 C.3    46  ILE46       0.0020
     73  CD1       32.6560   -4.5960  -13.6350 C.3    46  ILE46       0.0001
     74  N         29.6530   -2.4670   -9.4460 N.am   47  ASP47      -0.1974
     75  CA        29.2730   -1.3230   -8.6240 C.3    47  ASP47       0.1709
     76  C         28.9130   -1.6830   -7.1820 C.2    47  ASP47       0.2293
     77  O         29.1090   -0.8700   -6.2790 O.2    47  ASP47      -0.2864
     78  CB        28.1090   -0.5670   -9.2770 C.3    47  ASP47       0.1436
     79  CG        28.5590    0.3220  -10.4320 C.2    47  ASP47       0.3671
     80  OD1       29.7160    0.1860  -10.8860 O.co2  47  ASP47      -0.2456
     81  OD2       27.7480    1.1550  -10.8930 O.co2  47  ASP47      -0.2456
     82  N         24.3410   -1.8810   -3.4680 N.3    72  TYR72      -0.1241
     83  CA        24.0280   -0.9810   -4.5700 C.3    72  TYR72       0.1605
     84  C         23.1410    0.1680   -4.1000 C.2    72  TYR72       0.2264
     85  O         23.3540    1.3250   -4.4710 O.2    72  TYR72      -0.2867
     86  CB        23.3400   -1.7630   -5.6940 C.3    72  TYR72       0.0534
     87  CG        23.2620   -1.0280   -7.0160 C.ar   72  TYR72      -0.0201
     88  CD1       22.1780   -0.2020   -7.3240 C.ar   72  TYR72      -0.0009
     89  CD2       24.2730   -1.1680   -7.9660 C.ar   72  TYR72      -0.0009
     90  CE1       22.1040    0.4610   -8.5570 C.ar   72  TYR72       0.0417
     91  CE2       24.2100   -0.5090   -9.1920 C.ar   72  TYR72       0.0417
     92  CZ        23.1260    0.2980   -9.4790 C.ar   72  TYR72       0.1957
     93  OH        23.0740    0.9400  -10.6910 O.3    72  TYR72      -0.2866
     94  N         24.9910    2.5910   -1.9530 N.3    75  ARG75      -0.1231
     95  CA        25.8470    3.4450   -2.7690 C.3    75  ARG75       0.1694
     96  C         25.1420    4.5220   -3.5930 C.2    75  ARG75       0.2592
     97  O         25.6220    5.6580   -3.6700 O.2    75  ARG75      -0.2718
     98  CB        26.7000    2.5790   -3.7090 C.3    75  ARG75       0.0321
     99  CG        27.5610    3.3750   -4.6950 C.3    75  ARG75       0.0489
    100  CD        28.4990    2.4870   -5.5110 C.3    75  ARG75       0.2205
    101  NE        29.3680    3.2890   -6.3740 N.pl3  75  ARG75      -0.0865
    102  CZ        30.3740    2.8060   -7.0970 C.cat  75  ARG75       0.5346
    103  NH1       30.6560    1.5110   -7.0730 N.pl3  75  ARG75       0.1354
    104  NH2       31.1060    3.6250   -7.8450 N.pl3  75  ARG75       0.1354
    105  N         23.9990    4.1840   -4.1840 N.am   76  TYR76      -0.1976
    106  CA        23.2920    5.1180   -5.0640 C.3    76  TYR76       0.1639
    107  C         21.9500    5.7330   -4.6630 C.2    76  TYR76       0.2290
    108  O         21.6270    6.8340   -5.1050 O.2    76  TYR76      -0.2864
    109  CB        23.0860    4.4590   -6.4310 C.3    76  TYR76       0.0560
    110  CG        24.3470    4.1850   -7.2170 C.ar   76  TYR76      -0.0198
    111  CD1       25.2030    5.2240   -7.5820 C.ar   76  TYR76      -0.0009
    112  CD2       24.6600    2.8920   -7.6420 C.ar   76  TYR76      -0.0009
    113  CE1       26.3370    4.9840   -8.3560 C.ar   76  TYR76       0.0417
    114  CE2       25.7940    2.6400   -8.4170 C.ar   76  TYR76       0.0417
    115  CZ        26.6260    3.6940   -8.7720 C.ar   76  TYR76       0.1957
    116  OH        27.7340    3.4670   -9.5590 O.3    76  TYR76      -0.2866
    117  N         22.0150    9.1750   -2.8790 N.3    79  TRP79      -0.1241
    118  CA        22.7930   10.0060   -3.7880 C.3    79  TRP79       0.1605
    119  C         21.9180   10.4810   -4.9480 C.2    79  TRP79       0.2264
    120  O         22.0020   11.6330   -5.3790 O.2    79  TRP79      -0.2867
    121  CB        23.9790    9.2060   -4.3330 C.3    79  TRP79       0.0550
    122  CG        24.6660    9.8670   -5.4820 C.ar   79  TRP79       0.0003
    123  CD1       25.5180   10.9310   -5.4290 C.ar   79  TRP79       0.0946
    124  CD2       24.5250    9.5310   -6.8680 C.ar   79  TRP79       0.0152
    125  NE1       25.9190   11.2780   -6.6980 N.ar   79  TRP79      -0.2442
    126  CE2       25.3250   10.4350   -7.5990 C.ar   79  TRP79       0.0810
    127  CE3       23.8020    8.5500   -7.5610 C.ar   79  TRP79       0.0012
    128  CZ2       25.4180   10.3930   -8.9960 C.ar   79  TRP79       0.0191
    129  CZ3       23.8950    8.5070   -8.9500 C.ar   79  TRP79       0.0001
    130  CH2       24.7010    9.4230   -9.6520 C.ar   79  TRP79       0.0015
    131  N         16.9340   -0.5520   -8.8800 N.3    93  HIS93      -0.1226
    132  CA        17.3460   -1.8740   -9.3220 C.3    93  HIS93       0.1752
    133  C         17.0980   -2.0720  -10.8100 C.2    93  HIS93       0.2596
    134  O         17.9620   -2.5610  -11.5300 O.2    93  HIS93      -0.2718
    135  CB        16.6030   -2.9570   -8.5350 C.3    93  HIS93       0.0759
    136  CG        17.1490   -4.3320   -8.7490 C.ar   93  HIS93       0.0818
    137  ND1       18.3750   -4.7300   -8.2580 N.ar   93  HIS93      -0.2268
    138  CD2       16.6510   -5.3940   -9.4250 C.ar   93  HIS93       0.1154
    139  CE1       18.6090   -5.9780   -8.6260 C.ar   93  HIS93       0.1986
    140  NE2       17.5780   -6.4030   -9.3350 N.ar   93  HIS93      -0.2212
    141  N         15.9210   -1.6700  -11.2720 N.am   94  ASN94      -0.1960
    142  CA        15.5620   -1.8410  -12.6720 C.3    94  ASN94       0.1819
    143  C         16.1840   -0.8270  -13.6200 C.2    94  ASN94       0.2622
    144  O         16.4400   -1.1440  -14.7810 O.2    94  ASN94      -0.2715
    145  CB        14.0390   -1.7960  -12.8260 C.3    94  ASN94       0.1195
    146  CG        13.5880   -2.0170  -14.2600 C.2    94  ASN94       0.2630
    147  OD1       13.8460   -3.0670  -14.8500 O.2    94  ASN94      -0.2716
    148  ND2       12.9090   -1.0270  -14.8260 N.am   94  ASN94      -0.0877
    149  N         16.4370    0.3820  -13.1260 N.am   95  GLY95      -0.1940
    150  CA        16.9860    1.4230  -13.9800 C.3    95  GLY95       0.2014
    151  C         18.3980    1.9370  -13.7720 C.2    95  GLY95       0.2639
    152  O         18.8450    2.7890  -14.5350 O.2    95  GLY95      -0.2714
    153  N         19.1060    1.4540  -12.7560 N.am   96  GLY96      -0.1940
    154  CA        20.4680    1.9160  -12.5460 C.3    96  GLY96       0.1999
    155  C         20.6570    2.9950  -11.4930 C.2    96  GLY96       0.2481
    156  O         19.7460    3.2770  -10.7240 O.2    96  GLY96      -0.2729
    157  N         21.8440    3.6230  -11.4430 N.am   97  PRO97      -0.2715
    158  CA        22.1940    4.6800  -10.4880 C.3    97  PRO97       0.1536
    159  C         21.1070    5.7330  -10.2590 C.2    97  PRO97       0.2598
    160  O         20.9040    6.1860   -9.1320 O.2    97  PRO97      -0.2715
    161  CB        23.4660    5.2680  -11.0920 C.3    97  PRO97       0.0310
    162  CG        24.1130    4.0740  -11.6870 C.3    97  PRO97       0.0237
    163  CD        22.9510    3.3980  -12.3890 C.3    97  PRO97       0.0939
    164  N         20.4230    6.1330  -11.3260 N.am   98  ARG98      -0.1978
    165  CA        19.3560    7.1230  -11.2170 C.3    98  ARG98       0.1597
    166  C         18.0340    6.5260  -11.6960 C.2    98  ARG98       0.2287
    167  O         17.1270    7.2510  -12.1080 O.2    98  ARG98      -0.2864
    168  CB        19.6810    8.3710  -12.0500 C.3    98  ARG98       0.0334
    169  CG        20.9180    9.1400  -11.5960 C.3    98  ARG98       0.0492
    170  CD        20.9790   10.5000  -12.2830 C.3    98  ARG98       0.2205
    171  NE        22.1570   11.2750  -11.9030 N.pl3  98  ARG98      -0.0865
    172  CZ        23.3970   10.9930  -12.2900 C.cat  98  ARG98       0.5346
    173  NH1       23.6280    9.9500  -13.0760 N.pl3  98  ARG98       0.1354
    174  NH2       24.4070   11.7520  -11.8880 N.pl3  98  ARG98       0.1354
    175  N         13.8390    7.6590  -13.5050 N.3   102  LYS102     -0.1245
    176  CA        13.5280    7.3350  -14.8920 C.3   102  LYS102      0.1561
    177  C         12.0760    6.9070  -15.0420 C.2   102  LYS102      0.2260
    178  O         11.6240    5.9790  -14.3700 O.2   102  LYS102     -0.2867
    179  CB        14.4310    6.2060  -15.3970 C.3   102  LYS102      0.0271
    180  CG        15.9080    6.5530  -15.4720 C.3   102  LYS102      0.0035
    181  CD        16.6930    5.4130  -16.0990 C.3   102  LYS102      0.0206
    182  CE        18.1720    5.7380  -16.1920 C.3   102  LYS102      0.1093
    183  NZ        18.9340    4.6170  -16.8080 N.3   102  LYS102     -0.1314
@<TRIPOS>BOND
     1    11    10    1
     2    11    12    2
     3    10     9    1
     4    10    13    1
     5     9     3   am
     6    14    13    1
     7    14    15    1
     8     3     2    1
     9     3     4    2
    10     1     2    1
    11     2     5    1
    12    15    16    1
    13     7     6   ar
    14     5     6    1
    15     6     8   ar
    16    48    47    1
    17    47    46    1
    18    17    18    1
    19    22    21    1
    20    46    45    1
    21   183   182    1
    22    20    19    2
    23    21    18    1
    24    18    19    1
    25    45    44    1
    26   182   181    1
    27   181   180    1
    28    30    29    2
    29    44    41    1
    30   180   179    1
    31   179   176    1
    32    53    50    1
    33   177   176    1
    34   177   178    2
    35   176   175    1
    36   147   146    2
    37   148   146   am
    38   144   143    2
    39    41    42    1
    40    41    40    1
    41    49    50    1
    42    29    31   am
    43    29    28    1
    44   152   151    2
    45   146   145    1
    46    50    51    1
    47    42    43    2
    48   150   151    1
    49   150   149    1
    50   151   153   am
    51    28    27    1
    52    73    71    1
    53   143   149   am
    54   143   142    1
    55    40    34   am
    56    35    34    2
    57    27    24    1
    58    26    25    2
    59   173   172    1
    60    34    33    1
    61    51    54   am
    62    51    52    2
    63   145   142    1
    64   153   154    1
    65   142   141    1
    66    25    24    1
    67    25    32   am
    68    54    55    1
    69    24    23    1
    70   154   155    1
    71   163   162    1
    72   163   157    1
    73   172   171    2
    74   172   174    1
    75   170   171    1
    76   170   169    1
    77    71    70    1
    78   167   166    2
    79   168   169    1
    80   168   165    1
    81    32    33    1
    82    33    36    1
    83   166   165    1
    84   162   161    1
    85   134   133    2
    86   155   157   am
    87   155   156    2
    88   157   158    1
    89    70    72    1
    90    70    67    1
    91    58    55    1
    92    58    59    1
    93   164   165    1
    94   164   159   am
    95    55    56    1
    96   141   133   am
    97   161   158    1
    98    81    79   ar
    99    80    79   ar
   100   133   132    1
   101    93    92    1
   102    36    38    1
   103    36    37    1
   104   158   159    1
   105    79    78    1
   106    66    67    1
   107    61    59   ar
   108    61    63   ar
   109   159   160    2
   110    56    57    2
   111    59    60   ar
   112    67    68    1
   113   130   128   ar
   114   130   129   ar
   115   116   115    1
   116    92    91   ar
   117    92    90   ar
   118    74    68   am
   119    74    75    1
   120   138   140   ar
   121   138   136   ar
   122    37    39    1
   123   140   139   ar
   124   132   131    1
   125   132   135    1
   126    78    75    1
   127    63    64   ar
   128    91    89   ar
   129    68    69    2
   130    60    62   ar
   131   128   126   ar
   132   129   127   ar
   133   115   114   ar
   134   115   113   ar
   135   136   135    1
   136   136   137   ar
   137   139   137   ar
   138    75    76    1
   139    90    88   ar
   140   114   112   ar
   141   113   111   ar
   142    64    62   ar
   143    64    65    1
   144    89    87   ar
   145   104   102    1
   146   112   110   ar
   147   126   124   ar
   148   126   125   ar
   149   111   110   ar
   150   127   124   ar
   151    88    87   ar
   152   110   109    1
   153    76    77    2
   154   102   103    1
   155   102   101    2
   156    87    86    1
   157   124   122   ar
   158   125   123   ar
   159   109   106    1
   160   101   100    1
   161    86    83    1
   162   100    99    1
   163   122   123   ar
   164   122   121    1
   165   120   119    2
   166   108   107    2
   167   106   107    1
   168   106   105    1
   169   119   118    1
   170    99    98    1
   171    83    84    1
   172    83    82    1
   173    85    84    2
   174   121   118    1
   175   105    96   am
   176   118   117    1
   177    98    95    1
   178    97    96    2
   179    96    95    1
   180    95    94    1
