@<TRIPOS>MOLECULE
tmp/3ab8A00.pdb
 169 162 0 0 0
SMALL
GASTEIGER

@<TRIPOS>ATOM
      1  N         17.3390   38.8600    3.6200 N.3     6  ALA6       -0.1231
      2  CA        18.4240   38.0330    4.1380 C.3     6  ALA6        0.1694
      3  C         18.4920   38.3160    5.6310 C.2     6  ALA6        0.2593
      4  O         18.6550   39.4620    6.0340 O.2     6  ALA6       -0.2718
      5  CB        19.7480   38.4030    3.4730 C.3     6  ALA6        0.0304
      6  N         18.3500   37.2850    6.4560 N.am    7  THR7       -0.1939
      7  CA        18.4110   37.4910    7.9000 C.3     7  THR7        0.2028
      8  C         19.1930   36.4090    8.6220 C.2     7  THR7        0.2642
      9  O         19.1560   35.2490    8.2270 O.2     7  THR7       -0.2714
     10  CB        17.0050   37.5440    8.5310 C.3     7  THR7        0.1808
     11  OG1       17.1320   37.6920    9.9540 O.3     7  THR7       -0.2208
     12  CG2       16.2270   36.2640    8.2300 C.3     7  THR7        0.0379
     13  N         19.9200   36.8060    9.6650 N.am    8  ASP8       -0.1971
     14  CA        20.6820   35.8670   10.4740 C.3     8  ASP8        0.1709
     15  C         19.9350   35.6500   11.7910 C.2     8  ASP8        0.2293
     16  O         20.4430   35.0200   12.7190 O.2     8  ASP8       -0.2864
     17  CB        22.1050   36.3860   10.7300 C.3     8  ASP8        0.1436
     18  CG        22.1390   37.6840   11.5240 C.2     8  ASP8        0.3671
     19  OD1       21.0660   38.2430   11.8420 O.co2   8  ASP8       -0.2456
     20  OD2       23.2590   38.1470   11.8240 O.co2   8  ASP8       -0.2456
     21  N         19.0370   42.3550   13.0000 N.3    13  ALA13      -0.1245
     22  CA        18.3630   42.0620   11.7390 C.3    13  ALA13       0.1562
     23  C         16.8490   42.2140   11.8430 C.2    13  ALA13       0.2260
     24  O         16.1420   42.0770   10.8440 O.2    13  ALA13      -0.2867
     25  CB        18.7090   40.6390   11.2760 C.3    13  ALA13       0.0290
     26  N         15.2330   44.8260    9.4510 N.3    16  ALA16      -0.1245
     27  CA        15.1790   44.3670    8.0650 C.3    16  ALA16       0.1562
     28  C         14.0090   43.4070    7.8630 C.2    16  ALA16       0.2260
     29  O         13.2930   43.4860    6.8680 O.2    16  ALA16      -0.2867
     30  CB        16.4930   43.6790    7.6890 C.3    16  ALA16       0.0290
     31  N         15.8040   34.3130    3.2840 N.3    34  LEU34      -0.1231
     32  CA        16.9980   33.4770    3.2310 C.3    34  LEU34       0.1693
     33  C         17.8480   33.5110    4.4970 C.2    34  LEU34       0.2592
     34  O         18.1320   34.5810    5.0350 O.2    34  LEU34      -0.2718
     35  CB        17.8660   33.9210    2.0470 C.3    34  LEU34       0.0284
     36  CG        19.3050   33.3930    1.9720 C.3    34  LEU34       0.0019
     37  CD1       19.2820   31.9100    1.6500 C.3    34  LEU34       0.0001
     38  CD2       20.0810   34.1540    0.9030 C.3    34  LEU34       0.0001
     39  N         18.2400   32.3290    4.9710 N.am   35  PHE35      -0.1962
     40  CA        19.1200   32.2170    6.1280 C.3    35  PHE35       0.1771
     41  C         20.2860   31.3750    5.6300 C.2    35  PHE35       0.2619
     42  O         20.0830   30.3310    5.0070 O.2    35  PHE35      -0.2715
     43  CB        18.4480   31.5050    7.3090 C.3    35  PHE35       0.0574
     44  CG        19.3360   31.3920    8.5280 C.ar   35  PHE35      -0.0200
     45  CD1       19.2150   32.2920    9.5830 C.ar   35  PHE35      -0.0042
     46  CD2       20.3230   30.4090    8.5980 C.ar   35  PHE35      -0.0042
     47  CE1       20.0640   32.2190   10.6940 C.ar   35  PHE35      -0.0003
     48  CE2       21.1780   30.3260    9.6990 C.ar   35  PHE35      -0.0003
     49  CZ        21.0470   31.2330   10.7500 C.ar   35  PHE35      -0.0000
     50  N         21.5030   31.8310    5.8880 N.am   36  VAL36      -0.1977
     51  CA        22.6760   31.0890    5.4490 C.3    36  VAL36       0.1596
     52  C         23.4330   30.4470    6.6020 C.2    36  VAL36       0.2287
     53  O         23.8010   31.1200    7.5660 O.2    36  VAL36      -0.2864
     54  CB        23.6670   31.9990    4.6820 C.3    36  VAL36       0.0276
     55  CG1       24.8450   31.1750    4.1940 C.3    36  VAL36       0.0022
     56  CG2       22.9710   32.6770    3.5140 C.3    36  VAL36       0.0022
     57  N         26.4480   29.5750    8.1020 N.3    38  ASP38      -0.1239
     58  CA        27.7940   30.1250    7.9300 C.3    38  ASP38       0.1674
     59  C         28.9450   29.1230    7.9910 C.2    38  ASP38       0.2266
     60  O         29.3060   28.6490    9.0680 O.2    38  ASP38      -0.2867
     61  CB        28.0290   31.2100    8.9820 C.3    38  ASP38       0.1410
     62  CG        29.0360   32.2480    8.5380 C.2    38  ASP38       0.3668
     63  OD1       29.9180   31.9200    7.7170 O.co2  38  ASP38      -0.2456
     64  OD2       28.9500   33.3940    9.0240 O.co2  38  ASP38      -0.2456
     65  N         31.9470   29.7510    7.6690 N.3    40  ARG40      -0.1245
     66  CA        33.0900   30.3440    8.3530 C.3    40  ARG40       0.1563
     67  C         33.0610   29.9330    9.8210 C.2    40  ARG40       0.2260
     68  O         34.0870   29.9240   10.5010 O.2    40  ARG40      -0.2867
     69  CB        33.0620   31.8680    8.2180 C.3    40  ARG40       0.0307
     70  CG        33.2580   32.3580    6.7860 C.3    40  ARG40       0.0489
     71  CD        33.0570   33.8590    6.6990 C.3    40  ARG40       0.2205
     72  NE        31.7360   34.2300    7.1970 N.pl3  40  ARG40      -0.0865
     73  CZ        31.2960   35.4770    7.3150 C.cat  40  ARG40       0.5346
     74  NH1       32.0710   36.4950    6.9660 N.pl3  40  ARG40       0.1354
     75  NH2       30.0770   35.7030    7.7940 N.pl3  40  ARG40       0.1354
     76  N         27.9430   33.6420    3.9230 N.3    92  PRO92      -0.2116
     77  CA        26.7760   34.5190    3.8080 C.3    92  PRO92       0.1372
     78  C         26.6900   35.4640    2.6120 C.2    92  PRO92       0.2244
     79  O         25.7390   35.3710    1.8330 O.2    92  PRO92      -0.2868
     80  CB        26.7690   35.2520    5.1450 C.3    92  PRO92       0.0268
     81  CG        27.2330   34.1750    6.0840 C.3    92  PRO92       0.0207
     82  CD        28.4130   33.5840    5.3200 C.3    92  PRO92       0.0892
     83  N         24.0280   35.0220   -0.4790 N.3    96  ILE96      -0.1245
     84  CA        23.0500   36.0840   -0.6680 C.3    96  ILE96       0.1561
     85  C         23.1850   36.6510   -2.0830 C.2    96  ILE96       0.2260
     86  O         22.1900   36.8660   -2.7760 O.2    96  ILE96      -0.2867
     87  CB        23.2570   37.2080    0.3600 C.3    96  ILE96       0.0252
     88  CG1       22.9960   36.6700    1.7690 C.3    96  ILE96       0.0019
     89  CG2       22.3270   38.3720    0.0490 C.3    96  ILE96       0.0019
     90  CD1       23.4190   37.6160    2.8880 C.3    96  ILE96       0.0001
     91  N         18.5010   43.8550    3.8670 N.3   108  LEU108     -0.1231
     92  CA        19.4170   43.3410    4.8820 C.3   108  LEU108      0.1693
     93  C         19.5060   44.3470    6.0160 C.2   108  LEU108      0.2593
     94  O         19.1660   45.5140    5.8470 O.2   108  LEU108     -0.2718
     95  CB        20.8340   43.1610    4.3180 C.3   108  LEU108      0.0284
     96  CG        21.2270   41.9160    3.5230 C.3   108  LEU108      0.0019
     97  CD1       20.5260   41.8950    2.1740 C.3   108  LEU108      0.0001
     98  CD2       22.7450   41.9250    3.3350 C.3   108  LEU108      0.0001
     99  N         19.9730   43.8900    7.1710 N.am  109  GLY109     -0.1942
    100  CA        20.1480   44.7980    8.2830 C.3   109  GLY109      0.2014
    101  C         21.5170   45.4340    8.1190 C.2   109  GLY109      0.2639
    102  O         22.3380   44.9420    7.3350 O.2   109  GLY109     -0.2714
    103  N         21.7730   46.5320    8.8250 N.am  110  ARG110     -0.1963
    104  CA        23.0800   47.1860    8.7440 C.3   110  ARG110      0.1729
    105  C         24.1290   46.2510    9.3380 C.2   110  ARG110      0.2617
    106  O         25.2140   46.0800    8.7800 O.2   110  ARG110     -0.2715
    107  CB        23.0750   48.5040    9.5170 C.3   110  ARG110      0.0348
    108  CG        22.1940   49.5880    8.9060 C.3   110  ARG110      0.0492
    109  CD        22.1770   50.8250    9.7960 C.3   110  ARG110      0.2205
    110  NE        23.5160   51.3630   10.0140 N.pl3 110  ARG110     -0.0865
    111  CZ        24.2410   51.9810    9.0840 C.cat 110  ARG110      0.5346
    112  NH1       23.7550   52.1500    7.8620 N.pl3 110  ARG110      0.1354
    113  NH2       25.4650   52.4140    9.3690 N.pl3 110  ARG110      0.1354
    114  N         23.8040   45.6580   10.4830 N.am  111  SER111     -0.1936
    115  CA        24.7060   44.7160   11.1330 C.3   111  SER111      0.2055
    116  C         23.9200   43.4830   11.5610 C.2   111  SER111      0.2644
    117  O         22.7440   43.3480   11.2240 O.2   111  SER111     -0.2714
    118  CB        25.4120   45.3660   12.3330 C.3   111  SER111      0.2130
    119  OG        24.5010   45.7540   13.3450 O.3   111  SER111     -0.2179
    120  N         24.5640   42.5780   12.2890 N.am  112  GLY112     -0.1939
    121  CA        23.8780   41.3680   12.6960 C.3   112  GLY112      0.2014
    122  C         24.2750   40.7920   14.0380 C.2   112  GLY112      0.2639
    123  O         24.5200   41.5210   14.9990 O.2   112  GLY112     -0.2714
    124  N         24.3510   39.4650   14.0830 N.am  113  GLU113     -0.1963
    125  CA        24.6720   38.7280   15.3000 C.3   113  GLU113      0.1733
    126  C         25.9610   39.1180   16.0270 C.2   113  GLU113      0.2616
    127  O         26.0310   39.0270   17.2540 O.2   113  GLU113     -0.2715
    128  CB        24.7160   37.2290   14.9870 C.3   113  GLU113      0.0429
    129  CG        25.9010   36.8030   14.1280 C.3   113  GLU113      0.1163
    130  CD        25.8590   35.3340   13.7450 C.2   113  GLU113      0.3649
    131  OE1       25.2510   34.5400   14.4990 O.co2 113  GLU113     -0.2457
    132  OE2       26.4450   34.9710   12.6970 O.co2 113  GLU113     -0.2457
    133  N         26.9680   39.5530   15.2780 N.am  114  ALA114     -0.1963
    134  CA        28.2670   39.8960   15.8610 C.3   114  ALA114      0.1728
    135  C         28.3640   41.2110   16.6190 C.2   114  ALA114      0.2616
    136  O         29.3410   41.4340   17.3420 O.2   114  ALA114     -0.2715
    137  CB        29.3330   39.8640   14.7780 C.3   114  ALA114      0.0334
    138  N         27.3740   42.0830   16.4610 N.am  115  HIS115     -0.1973
    139  CA        27.4140   43.3770   17.1350 C.3   115  HIS115      0.1656
    140  C         26.2500   43.6610   18.0680 C.2   115  HIS115      0.2291
    141  O         25.1060   43.2940   17.7940 O.2   115  HIS115     -0.2864
    142  CB        27.4980   44.5140   16.1120 C.3   115  HIS115      0.0771
    143  CG        28.7730   44.5330   15.3300 C.ar  115  HIS115      0.0820
    144  ND1       28.9620   43.7730   14.1960 N.ar  115  HIS115     -0.2267
    145  CD2       29.9270   45.2130   15.5260 C.ar  115  HIS115      0.1154
    146  CE1       30.1790   43.9850   13.7260 C.ar  115  HIS115      0.1986
    147  NE2       30.7850   44.8540   14.5150 N.ar  115  HIS115     -0.2212
    148  N         28.0330   45.7490    9.1440 N.3   123  GLY123     -0.1210
    149  CA        28.7150   44.4730    9.2730 C.3   123  GLY123      0.1956
    150  C         29.3760   44.1520    7.9440 C.2   123  GLY123      0.2613
    151  O         29.0670   44.7950    6.9390 O.2   123  GLY123     -0.2717
    152  N         30.2620   43.1590    7.9150 N.am  124  SER124     -0.1938
    153  CA        30.9550   42.8260    6.6760 C.3   124  SER124      0.2055
    154  C         30.1090   42.0910    5.6420 C.2   124  SER124      0.2644
    155  O         30.4010   42.1540    4.4470 O.2   124  SER124     -0.2714
    156  CB        32.2430   42.0390    6.9720 C.3   124  SER124      0.2130
    157  OG        31.9890   40.7890    7.5850 O.3   124  SER124     -0.2179
    158  N         29.0600   41.3980    6.0800 N.am  125  THR125     -0.1936
    159  CA        28.2050   40.7070    5.1240 C.3   125  THR125      0.2028
    160  C         27.4140   41.7710    4.3600 C.2   125  THR125      0.2642
    161  O         27.3220   41.7260    3.1340 O.2   125  THR125     -0.2714
    162  CB        27.2200   39.7300    5.8170 C.3   125  THR125      0.1808
    163  OG1       27.9450   38.6230    6.3650 O.3   125  THR125     -0.2208
    164  CG2       26.1980   39.2050    4.8200 C.3   125  THR125      0.0379
    165  N         26.8630   42.7420    5.0850 N.am  126  ALA126     -0.1977
    166  CA        26.1010   43.8130    4.4380 C.3   126  ALA126      0.1597
    167  C         27.0060   44.6100    3.4970 C.2   126  ALA126      0.2287
    168  O         26.6160   44.9470    2.3820 O.2   126  ALA126     -0.2864
    169  CB        25.4920   44.7410    5.4890 C.3   126  ALA126      0.0319
@<TRIPOS>BOND
     1    86    85    2
     2    85    84    1
     3    84    83    1
     4    84    87    1
     5    89    87    1
     6    87    88    1
     7    38    36    1
     8    37    36    1
     9    88    90    1
    10    79    78    2
    11    36    35    1
    12    35    32    1
    13    97    96    1
    14   168   167    2
    15    78    77    1
    16   161   160    2
    17    32    31    1
    18    32    33    1
    19    98    96    1
    20     5     2    1
    21   167   166    1
    22    56    54    1
    23    96    95    1
    24     1     2    1
    25    77    76    1
    26    77    80    1
    27    91    92    1
    28    76    82    1
    29     2     3    1
    30    55    54    1
    31    95    92    1
    32   160   165   am
    33   160   159    1
    34   166   165    1
    35   166   169    1
    36   155   154    2
    37    33    39   am
    38    33    34    2
    39    54    51    1
    40   164   162    1
    41    92    93    1
    42    39    40    1
    43    42    41    2
    44   159   162    1
    45   159   158    1
    46    80    81    1
    47    82    81    1
    48    51    50    1
    49    51    52    1
    50    41    50   am
    51    41    40    1
    52     3     4    2
    53     3     6   am
    54   154   158   am
    55   154   153    1
    56   162   163    1
    57    94    93    2
    58    93    99   am
    59    40    43    1
    60     6     7    1
    61    52    53    2
    62   153   156    1
    63   153   152    1
    64    71    70    1
    65    71    72    1
    66    70    69    1
    67    29    28    2
    68   151   150    2
    69    74    73    1
    70   156   157    1
    71    99   100    1
    72    72    73    2
    73    43    44    1
    74    73    75    1
    75   102   101    2
    76    65    66    1
    77    30    27    1
    78    63    62   ar
    79   112   111    1
    80    28    27    1
    81     7    10    1
    82     7     8    1
    83   152   150   am
    84    58    59    1
    85    58    57    1
    86    58    61    1
    87   150   149    1
    88    59    60    2
    89    27    26    1
    90   101   100    1
    91   101   103   am
    92    69    66    1
    93     9     8    2
    94    12    10    1
    95    66    67    1
    96    44    46   ar
    97    44    45   ar
    98    10    11    1
    99    62    61    1
   100    62    64   ar
   101    46    48   ar
   102     8    13   am
   103   104   103    1
   104   104   105    1
   105   104   107    1
   106   106   105    2
   107   108   107    1
   108   108   109    1
   109   111   113    1
   110   111   110    2
   111   148   149    1
   112   105   114   am
   113    45    47   ar
   114    13    14    1
   115    48    49   ar
   116   109   110    1
   117    67    68    2
   118    14    17    1
   119    14    15    1
   120   114   115    1
   121    47    49   ar
   122    17    18    1
   123    24    23    2
   124   115   116    1
   125   115   118    1
   126   117   116    2
   127    25    22    1
   128    18    20   ar
   129    18    19   ar
   130   116   120   am
   131    22    23    1
   132    22    21    1
   133    15    16    2
   134   120   121    1
   135   118   119    1
   136   121   122    1
   137   132   130   ar
   138   146   144   ar
   139   146   147   ar
   140   130   129    1
   141   130   131   ar
   142   122   124   am
   143   122   123    2
   144   124   125    1
   145   129   128    1
   146   144   143   ar
   147   147   145   ar
   148   137   134    1
   149   128   125    1
   150   133   134    1
   151   133   126   am
   152   125   126    1
   153   143   145   ar
   154   143   142    1
   155   134   135    1
   156   126   127    2
   157   142   139    1
   158   138   135   am
   159   138   139    1
   160   135   136    2
   161   139   140    1
   162   141   140    2
