@<TRIPOS>MOLECULE
tmp/3ab8A01.pdb
 160 154 0 0 0
SMALL
GASTEIGER

@<TRIPOS>ATOM
      1  N         20.8500   61.0860   -3.2390 N.3   153  GLY153     -0.1210
      2  CA        22.1150   61.7580   -3.4610 C.3   153  GLY153      0.1956
      3  C         22.3680   61.5940   -4.9480 C.2   153  GLY153      0.2612
      4  O         22.6850   60.4940   -5.4100 O.2   153  GLY153     -0.2717
      5  N         22.2290   62.6760   -5.7060 N.am  154  TYR154     -0.1962
      6  CA        22.4000   62.5920   -7.1510 C.3   154  TYR154      0.1771
      7  C         23.4860   63.4860   -7.7360 C.2   154  TYR154      0.2619
      8  O         23.4100   64.7130   -7.6570 O.2   154  TYR154     -0.2715
      9  CB        21.0680   62.9080   -7.8340 C.3   154  TYR154      0.0574
     10  CG        21.0400   62.5350   -9.2920 C.ar  154  TYR154     -0.0198
     11  CD1       21.0090   61.1970   -9.6870 C.ar  154  TYR154     -0.0009
     12  CD2       21.0750   63.5180  -10.2800 C.ar  154  TYR154     -0.0009
     13  CE1       21.0150   60.8460  -11.0280 C.ar  154  TYR154      0.0417
     14  CE2       21.0860   63.1790  -11.6250 C.ar  154  TYR154      0.0417
     15  CZ        21.0540   61.8440  -11.9900 C.ar  154  TYR154      0.1957
     16  OH        21.0560   61.5110  -13.3160 O.3   154  TYR154     -0.2866
     17  N         24.4870   62.8560   -8.3390 N.am  155  ASP155     -0.1971
     18  CA        25.5810   63.5860   -8.9650 C.3   155  ASP155      0.1709
     19  C         25.7180   63.1630  -10.4300 C.2   155  ASP155      0.2293
     20  O         26.7540   63.3800  -11.0540 O.2   155  ASP155     -0.2864
     21  CB        26.8840   63.3300   -8.1990 C.3   155  ASP155      0.1436
     22  CG        27.3350   61.8850   -8.2750 C.2   155  ASP155      0.3671
     23  OD1       26.5230   61.0200   -8.6610 O.co2 155  ASP155     -0.2456
     24  OD2       28.5060   61.6150   -7.9410 O.co2 155  ASP155     -0.2456
     25  N         26.2410   60.4010  -11.7620 N.3   157  SER157     -0.1217
     26  CA        27.1940   59.3360  -12.0420 C.3   157  SER157      0.1889
     27  C         26.3800   58.0900  -12.3930 C.2   157  SER157      0.2288
     28  O         25.1820   58.0350  -12.1300 O.2   157  SER157     -0.2866
     29  CB        28.0570   59.0590  -10.8080 C.3   157  SER157      0.2089
     30  OG        27.2480   58.6360   -9.7230 O.3   157  SER157     -0.2183
     31  N         26.1750   55.1110  -11.0410 N.3   159  SER159     -0.1202
     32  CA        25.4940   54.5040   -9.9070 C.3   159  SER159      0.2020
     33  C         24.3810   55.3880   -9.3520 C.2   159  SER159      0.2618
     34  O         23.3820   54.8760   -8.8440 O.2   159  SER159     -0.2717
     35  CB        26.4980   54.1340   -8.8100 C.3   159  SER159      0.2103
     36  OG        27.1510   55.2720   -8.2820 O.3   159  SER159     -0.2182
     37  N         24.5440   56.7060   -9.4500 N.am  160  ALA160     -0.1979
     38  CA        23.5090   57.6210   -8.9700 C.3   160  ALA160      0.1597
     39  C         22.2860   57.4780   -9.8730 C.2   160  ALA160      0.2287
     40  O         21.1480   57.6120   -9.4170 O.2   160  ALA160     -0.2864
     41  CB        24.0170   59.0620   -8.9950 C.3   160  ALA160      0.0319
     42  N         19.1970   65.6780   -3.6690 N.3   181  VAL181     -0.1245
     43  CA        20.3220   66.4250   -3.1160 C.3   181  VAL181      0.1561
     44  C         21.5160   66.3240   -4.0550 C.2   181  VAL181      0.2260
     45  O         22.0430   65.2400   -4.2800 O.2   181  VAL181     -0.2867
     46  CB        20.7190   65.8660   -1.7320 C.3   181  VAL181      0.0252
     47  CG1       21.8940   66.6580   -1.1590 C.3   181  VAL181      0.0019
     48  CG2       19.5230   65.9320   -0.7910 C.3   181  VAL181      0.0019
     49  N         25.2950   68.0070   -4.7100 N.3   183  VAL183     -0.1231
     50  CA        26.3420   68.8310   -4.1110 C.3   183  VAL183      0.1692
     51  C         27.5750   69.0710   -4.9830 C.2   183  VAL183      0.2592
     52  O         28.2070   68.1290   -5.4500 O.2   183  VAL183     -0.2718
     53  CB        26.8090   68.1960   -2.7760 C.3   183  VAL183      0.0266
     54  CG1       27.7680   69.1330   -2.0510 C.3   183  VAL183      0.0020
     55  CG2       25.6020   67.8760   -1.9040 C.3   183  VAL183      0.0020
     56  N         27.9220   70.3400   -5.1870 N.am  184  HIS184     -0.1976
     57  CA        29.0960   70.6900   -5.9830 C.3   184  HIS184      0.1656
     58  C         29.4350   72.1700   -5.8180 C.2   184  HIS184      0.2291
     59  O         28.5480   72.9900   -5.5980 O.2   184  HIS184     -0.2864
     60  CB        28.8480   70.3650   -7.4590 C.3   184  HIS184      0.0771
     61  CG        30.1030   70.2220   -8.2630 C.ar  184  HIS184      0.0820
     62  ND1       30.8450   71.3030   -8.6900 N.ar  184  HIS184     -0.2267
     63  CD2       30.7660   69.1200   -8.6880 C.ar  184  HIS184      0.1154
     64  CE1       31.9110   70.8730   -9.3410 C.ar  184  HIS184      0.1986
     65  NE2       31.8870   69.5520   -9.3550 N.ar  184  HIS184     -0.2212
     66  N         22.2940   68.6850  -12.3560 N.3   193  TRP193     -0.1241
     67  CA        22.1060   67.3360  -11.8270 C.3   193  TRP193      0.1605
     68  C         20.7290   67.2130  -11.1920 C.2   193  TRP193      0.2264
     69  O         19.9590   66.3110  -11.5180 O.2   193  TRP193     -0.2867
     70  CB        23.1540   67.0100  -10.7590 C.3   193  TRP193      0.0550
     71  CG        24.5630   66.8880  -11.2470 C.ar  193  TRP193      0.0003
     72  CD1       24.9820   66.6880  -12.5320 C.ar  193  TRP193      0.0946
     73  CD2       25.7400   66.8770  -10.4330 C.ar  193  TRP193      0.0152
     74  NE1       26.3520   66.5470  -12.5670 N.ar  193  TRP193     -0.2442
     75  CE2       26.8420   66.6590  -11.2920 C.ar  193  TRP193      0.0810
     76  CE3       25.9710   67.0280   -9.0600 C.ar  193  TRP193      0.0012
     77  CZ2       28.1570   66.5870  -10.8190 C.ar  193  TRP193      0.0191
     78  CZ3       27.2800   66.9570   -8.5900 C.ar  193  TRP193      0.0001
     79  CH2       28.3550   66.7380   -9.4700 C.ar  193  TRP193      0.0015
     80  N         29.3670   66.6810    0.5690 N.3   217  ALA217     -0.1245
     81  CA        28.1760   65.9110    0.2140 C.3   217  ALA217      0.1562
     82  C         27.7550   64.8980    1.2710 C.2   217  ALA217      0.2260
     83  O         26.5760   64.8070    1.6160 O.2   217  ALA217     -0.2867
     84  CB        28.3940   65.2050   -1.1180 C.3   217  ALA217      0.0290
     85  N         24.1010   64.9200    3.1880 N.3   221  LEU221     -0.1245
     86  CA        23.2040   63.7740    3.0760 C.3   221  LEU221      0.1561
     87  C         22.8770   63.1680    4.4390 C.2   221  LEU221      0.2260
     88  O         21.7250   62.8390    4.7220 O.2   221  LEU221     -0.2867
     89  CB        23.8300   62.7100    2.1660 C.3   221  LEU221      0.0270
     90  CG        23.9190   63.0890    0.6840 C.3   221  LEU221      0.0019
     91  CD1       24.7370   62.0490   -0.0710 C.3   221  LEU221      0.0001
     92  CD2       22.5130   63.1850    0.1060 C.3   221  LEU221      0.0001
     93  N         21.3790   56.1860   -2.8000 N.3   233  LEU233     -0.1231
     94  CA        22.6210   56.6490   -3.4150 C.3   233  LEU233      0.1693
     95  C         23.3520   55.4900   -4.0720 C.2   233  LEU233      0.2593
     96  O         23.0660   54.3330   -3.7930 O.2   233  LEU233     -0.2718
     97  CB        23.5430   57.2940   -2.3670 C.3   233  LEU233      0.0284
     98  CG        24.3170   56.3750   -1.4120 C.3   233  LEU233      0.0019
     99  CD1       25.2980   57.2090   -0.5890 C.3   233  LEU233      0.0001
    100  CD2       23.3520   55.6200   -0.5050 C.3   233  LEU233      0.0001
    101  N         24.2920   55.8080   -4.9560 N.am  234  GLY234     -0.1942
    102  CA        25.0530   54.7640   -5.6140 C.3   234  GLY234      0.2014
    103  C         25.9890   54.1110   -4.6150 C.2   234  GLY234      0.2639
    104  O         26.4630   54.7570   -3.6800 O.2   234  GLY234     -0.2714
    105  N         26.2550   52.8230   -4.8110 N.am  235  ALA235     -0.1963
    106  CA        27.1370   52.0880   -3.9150 C.3   235  ALA235      0.1713
    107  C         28.5880   52.5000   -4.1010 C.2   235  ALA235      0.2458
    108  O         28.9880   52.9420   -5.1780 O.2   235  ALA235     -0.2730
    109  CB        26.9950   50.5920   -4.1570 C.3   235  ALA235      0.0333
    110  N         29.3970   52.3720   -3.0420 N.am  236  PRO236     -0.2716
    111  CA        30.8040   52.7470   -3.1700 C.3   236  PRO236      0.1536
    112  C         31.5480   51.7000   -3.9930 C.2   236  PRO236      0.2598
    113  O         31.0690   50.5760   -4.1520 O.2   236  PRO236     -0.2715
    114  CB        31.2750   52.8040   -1.7190 C.3   236  PRO236      0.0310
    115  CG        30.4370   51.7700   -1.0500 C.3   236  PRO236      0.0237
    116  CD        29.0680   52.0020   -1.6540 C.3   236  PRO236      0.0939
    117  N         32.7050   52.0780   -4.5270 N.am  237  VAL237     -0.1964
    118  CA        33.5250   51.1710   -5.3240 C.3   237  VAL237      0.1727
    119  C         34.8540   50.9600   -4.5950 C.2   237  VAL237      0.2616
    120  O         35.0810   49.9050   -4.0040 O.2   237  VAL237     -0.2715
    121  CB        33.7870   51.7510   -6.7290 C.3   237  VAL237      0.0290
    122  CG1       34.6560   50.8000   -7.5320 C.3   237  VAL237      0.0023
    123  CG2       32.4620   51.9890   -7.4420 C.3   237  VAL237      0.0023
    124  N         35.7260   51.9610   -4.6260 N.am  238  ARG238     -0.1977
    125  CA        37.0070   51.8560   -3.9260 C.3   238  ARG238      0.1597
    126  C         36.7770   51.8870   -2.4150 C.2   238  ARG238      0.2287
    127  O         35.7370   52.3490   -1.9510 O.2   238  ARG238     -0.2864
    128  CB        37.9290   53.0220   -4.2990 C.3   238  ARG238      0.0334
    129  CG        38.5010   52.9760   -5.7100 C.3   238  ARG238      0.0492
    130  CD        39.3690   54.2090   -5.9730 C.3   238  ARG238      0.2205
    131  NE        38.5670   55.4240   -6.0930 N.pl3 238  ARG238     -0.0865
    132  CZ        39.0550   56.6600   -6.0640 C.cat 238  ARG238      0.5346
    133  NH1       40.3570   56.8690   -5.9140 N.pl3 238  ARG238      0.1354
    134  NH2       38.2340   57.6970   -6.1920 N.pl3 238  ARG238      0.1354
    135  N         38.3490   53.6960    0.1660 N.3   240  LEU240     -0.1245
    136  CA        39.2720   54.7750    0.5060 C.3   240  LEU240      0.1561
    137  C         39.5810   54.8830    1.9930 C.2   240  LEU240      0.2260
    138  O         38.7230   54.6520    2.8400 O.2   240  LEU240     -0.2867
    139  CB        38.7220   56.1080   -0.0070 C.3   240  LEU240      0.0270
    140  CG        38.2520   56.1470   -1.4660 C.3   240  LEU240      0.0019
    141  CD1       37.8520   57.5720   -1.8120 C.3   240  LEU240      0.0001
    142  CD2       39.3520   55.6670   -2.4050 C.3   240  LEU240      0.0001
    143  N         34.9380   57.3920    0.6820 N.3   244  SER244     -0.1202
    144  CA        34.3250   58.1660   -0.3860 C.3   244  SER244      0.2020
    145  C         32.9860   58.6410    0.1640 C.2   244  SER244      0.2619
    146  O         32.5790   58.2370    1.2530 O.2   244  SER244     -0.2717
    147  CB        34.0940   57.2990   -1.6270 C.3   244  SER244      0.2103
    148  OG        33.0080   56.4040   -1.4320 O.3   244  SER244     -0.2182
    149  N         32.2960   59.4890   -0.5870 N.am  245  THR245     -0.1938
    150  CA        31.0110   60.0080   -0.1400 C.3   245  THR245      0.2028
    151  C         30.0620   58.9160    0.3500 C.2   245  THR245      0.2642
    152  O         29.5880   58.9730    1.4830 O.2   245  THR245     -0.2714
    153  CB        30.3370   60.8270   -1.2620 C.3   245  THR245      0.1808
    154  OG1       31.1480   61.9720   -1.5570 O.3   245  THR245     -0.2208
    155  CG2       28.9460   61.2970   -0.8310 C.3   245  THR245      0.0379
    156  N         29.7990   57.9130   -0.4840 N.am  246  ALA246     -0.1977
    157  CA        28.8830   56.8390   -0.0940 C.3   246  ALA246      0.1597
    158  C         29.3900   56.0240    1.0930 C.2   246  ALA246      0.2287
    159  O         28.5960   55.5730    1.9220 O.2   246  ALA246     -0.2864
    160  CB        28.6090   55.9240   -1.2790 C.3   246  ALA246      0.0319
@<TRIPOS>BOND
     1    16    15    1
     2    74    72   ar
     3    74    75   ar
     4    72    71   ar
     5    27    28    2
     6    27    26    1
     7    66    67    1
     8    26    25    1
     9    26    29    1
    10    15    14   ar
    11    15    13   ar
    12    67    68    1
    13    67    70    1
    14    14    12   ar
    15    69    68    2
    16    75    77   ar
    17    75    73   ar
    18    71    70    1
    19    71    73   ar
    20    20    19    2
    21    31    32    1
    22    13    11   ar
    23    77    79   ar
    24    29    30    1
    25    73    76   ar
    26    19    18    1
    27    12    10   ar
    28    32    33    1
    29    32    35    1
    30    39    40    2
    31    39    38    1
    32    11    10   ar
    33    79    78   ar
    34    37    33   am
    35    37    38    1
    36    65    64   ar
    37    65    63   ar
    38    33    34    2
    39    64    62   ar
    40    10     9    1
    41    76    78   ar
    42    41    38    1
    43    18    17    1
    44    18    21    1
    45    35    36    1
    46    62    61   ar
    47    63    61   ar
    48    23    22   ar
    49    17     7   am
    50    22    21    1
    51    22    24   ar
    52    61    60    1
    53     9     6    1
    54     7     8    2
    55     7     6    1
    56   122   121    1
    57    60    57    1
    58   123   121    1
    59     6     5    1
    60   121   118    1
    61   134   132    1
    62   131   132    2
    63   131   130    1
    64   132   133    1
    65    57    58    1
    66    57    56    1
    67   130   129    1
    68    58    59    2
    69   129   128    1
    70     5     3   am
    71   102   101    1
    72   102   103    1
    73    52    51    2
    74     4     3    2
    75   118   119    1
    76   118   117    1
    77    56    51   am
    78   108   107    2
    79    51    50    1
    80   101    95   am
    81     3     2    1
    82   105   103   am
    83   105   106    1
    84    49    50    1
    85   124   119   am
    86   124   125    1
    87   103   104    2
    88   119   120    2
    89   117   112   am
    90   128   125    1
    91    45    44    2
    92   109   106    1
    93   113   112    2
    94    50    53    1
    95   107   106    1
    96   107   110   am
    97    95    96    2
    98    95    94    1
    99    44    43    1
   100   112   111    1
   101   125   126    1
   102    42    43    1
   103     2     1    1
   104    94    93    1
   105    94    97    1
   106   111   110    1
   107   111   114    1
   108    43    46    1
   109   110   116    1
   110    53    54    1
   111    53    55    1
   112   126   127    2
   113   142   140    1
   114    97    98    1
   115   141   140    1
   116    46    47    1
   117    46    48    1
   118   114   115    1
   119   116   115    1
   120   147   148    1
   121   147   144    1
   122   154   153    1
   123   140   139    1
   124    98    99    1
   125    98   100    1
   126   160   157    1
   127   153   155    1
   128   153   150    1
   129    84    81    1
   130   149   150    1
   131   149   145   am
   132   156   157    1
   133   156   151   am
   134   144   145    1
   135   144   143    1
   136   150   151    1
   137   157   158    1
   138    91    90    1
   139   139   136    1
   140    92    90    1
   141   145   146    2
   142   135   136    1
   143    81    80    1
   144    81    82    1
   145   151   152    2
   146   136   137    1
   147    90    89    1
   148   158   159    2
   149    82    83    2
   150   137   138    2
   151    89    86    1
   152    86    85    1
   153    86    87    1
   154    87    88    2
