@<TRIPOS>MOLECULE
tmp/3abgB00.pdb
 99 94 0 0 0
SMALL
GASTEIGER

@<TRIPOS>ATOM
      1  N         60.3340  -38.0540   -6.7990 N.3   375  LEU375     -0.1245
      2  CA        58.8820  -37.7970   -6.7170 C.3   375  LEU375      0.1561
      3  C         57.9710  -38.9130   -6.1860 C.2   375  LEU375      0.2260
      4  O         58.4340  -39.8820   -5.5760 O.2   375  LEU375     -0.2867
      5  CB        58.3480  -37.4060   -8.1030 C.3   375  LEU375      0.0270
      6  CG        57.8150  -38.5800   -8.9410 C.3   375  LEU375      0.0019
      7  CD1       56.6080  -38.1850   -9.8270 C.3   375  LEU375      0.0001
      8  CD2       58.9380  -39.2490   -9.7380 C.3   375  LEU375      0.0001
      9  N         51.0200  -40.8150   -9.2640 N.3   378  ASN378     -0.1240
     10  CA        50.3610  -40.3370  -10.4800 C.3   378  ASN378      0.1653
     11  C         48.8330  -40.2890  -10.3710 C.2   378  ASN378      0.2266
     12  O         48.1990  -41.2900  -10.0190 O.2   378  ASN378     -0.2867
     13  CB        50.7380  -41.2260  -11.6620 C.3   378  ASN378      0.1155
     14  CG        52.2100  -41.5820  -11.6820 C.2   378  ASN378      0.2627
     15  OD1       53.0680  -40.7320  -11.9310 O.2   378  ASN378     -0.2716
     16  ND2       52.5090  -42.8510  -11.4310 N.am  378  ASN378     -0.0877
     17  N         46.7050  -31.1240  -17.0580 N.3   450  PRO450     -0.2116
     18  CA        47.7250  -32.1770  -16.9300 C.3   450  PRO450      0.1372
     19  C         49.1330  -31.6480  -16.6380 C.2   450  PRO450      0.2244
     20  O         49.5370  -30.6050  -17.1610 O.2   450  PRO450     -0.2868
     21  CB        47.7210  -32.8450  -18.3130 C.3   450  PRO450      0.0268
     22  CG        46.5820  -32.2040  -19.0820 C.3   450  PRO450      0.0207
     23  CD        46.3720  -30.8680  -18.4660 C.3   450  PRO450      0.0892
     24  N         53.0140  -32.1050  -13.9360 N.3   452  VAL452     -0.1245
     25  CA        53.6360  -32.4740  -12.6820 C.3   452  VAL452      0.1561
     26  C         53.6120  -31.2980  -11.7150 C.2   452  VAL452      0.2260
     27  O         54.0910  -30.2050  -12.0210 O.2   452  VAL452     -0.2867
     28  CB        55.0800  -32.9300  -12.8860 C.3   452  VAL452      0.0252
     29  CG1       55.6000  -33.6050  -11.6260 C.3   452  VAL452      0.0019
     30  CG2       55.1720  -33.8670  -14.0750 C.3   452  VAL452      0.0019
     31  N         51.9000  -36.1990  -10.6550 N.3   472  ASN472     -0.1225
     32  CA        51.7570  -36.0190  -12.0940 C.3   472  ASN472      0.1785
     33  C         50.3400  -36.3350  -12.5370 C.2   472  ASN472      0.2597
     34  O         49.9260  -37.4900  -12.5430 O.2   472  ASN472     -0.2718
     35  CB        52.7650  -36.9090  -12.8450 C.3   472  ASN472      0.1169
     36  CG        52.7260  -36.7200  -14.3780 C.2   472  ASN472      0.2627
     37  OD1       52.2020  -35.7260  -14.8860 O.2   472  ASN472     -0.2716
     38  ND2       53.2910  -37.6960  -15.1110 N.am  472  ASN472     -0.0877
     39  N         49.5920  -35.2970  -12.8920 N.am  473  ALA473     -0.1966
     40  CA        48.2910  -35.4760  -13.5150 C.3   473  ALA473      0.1728
     41  C         48.5250  -36.2040  -14.8340 C.2   473  ALA473      0.2617
     42  O         49.2000  -35.6870  -15.7220 O.2   473  ALA473     -0.2715
     43  CB        47.6360  -34.1270  -13.7430 C.3   473  ALA473      0.0334
     44  N         47.9460  -37.3940  -14.9600 N.am  474  THR474     -0.1937
     45  CA        48.4510  -38.4250  -15.8810 C.3   474  THR474      0.2028
     46  C         47.9430  -38.4370  -17.3500 C.2   474  THR474      0.2642
     47  O         46.9860  -37.7420  -17.7070 O.2   474  THR474     -0.2714
     48  CB        48.3820  -39.8440  -15.1990 C.3   474  THR474      0.1808
     49  OG1       49.6060  -40.0980  -14.4900 O.3   474  THR474     -0.2208
     50  CG2       48.1320  -40.9690  -16.2020 C.3   474  THR474      0.0379
     51  N         48.6280  -39.2520  -18.1630 N.am  475  VAL475     -0.1963
     52  CA        48.5030  -39.3910  -19.6300 C.3   475  VAL475      0.1727
     53  C         47.1310  -39.1850  -20.3050 C.2   475  VAL475      0.2616
     54  O         46.5480  -40.1150  -20.8750 O.2   475  VAL475     -0.2715
     55  CB        49.1270  -40.7550  -20.0930 C.3   475  VAL475      0.0290
     56  CG1       48.3240  -41.9460  -19.5520 C.3   475  VAL475      0.0023
     57  CG2       49.2770  -40.8190  -21.6160 C.3   475  VAL475      0.0023
     58  N         46.6400  -37.9530  -20.2740 N.am  476  LEU476     -0.1964
     59  CA        45.3970  -37.6160  -20.9500 C.3   476  LEU476      0.1713
     60  C         45.3340  -36.1000  -21.1130 C.2   476  LEU476      0.2458
     61  O         45.3150  -35.3750  -20.1140 O.2   476  LEU476     -0.2730
     62  CB        44.1970  -38.1240  -20.1420 C.3   476  LEU476      0.0310
     63  CG        42.9070  -38.4200  -20.9120 C.3   476  LEU476      0.0022
     64  CD1       43.1040  -39.6200  -21.8330 C.3   476  LEU476      0.0001
     65  CD2       41.7360  -38.6540  -19.9600 C.3   476  LEU476      0.0001
     66  N         45.3190  -35.6150  -22.3750 N.am  477  PRO477     -0.2727
     67  CA        45.2980  -34.1750  -22.6750 C.3   477  PRO477      0.1402
     68  C         44.0780  -33.5300  -22.0560 C.2   477  PRO477      0.2269
     69  O         43.0900  -34.2330  -21.8760 O.2   477  PRO477     -0.2865
     70  CB        45.1730  -34.1410  -24.2070 C.3   477  PRO477      0.0296
     71  CG        44.6690  -35.5220  -24.5870 C.3   477  PRO477      0.0237
     72  CD        45.3700  -36.4140  -23.6140 C.3   477  PRO477      0.0939
     73  N         48.7020  -31.1320  -25.1610 N.3   483  ALA483     -0.1231
     74  CA        49.1950  -31.6670  -23.8910 C.3   483  ALA483      0.1694
     75  C         50.6550  -31.3510  -23.5650 C.2   483  ALA483      0.2592
     76  O         50.9220  -30.3920  -22.8490 O.2   483  ALA483     -0.2718
     77  CB        48.9280  -33.1570  -23.7950 C.3   483  ALA483      0.0304
     78  N         51.6110  -32.1420  -24.0350 N.am  484  THR484     -0.1953
     79  CA        52.9690  -31.9050  -23.5440 C.3   484  THR484      0.1897
     80  C         53.8720  -31.0970  -24.4630 C.2   484  THR484      0.2313
     81  O         54.7200  -31.6400  -25.1710 O.2   484  THR484     -0.2863
     82  CB        53.6900  -33.1870  -22.9840 C.3   484  THR484      0.1794
     83  OG1       53.2200  -33.4540  -21.6530 O.3   484  THR484     -0.2208
     84  CG2       55.2100  -32.9700  -22.9110 C.3   484  THR484      0.0378
     85  N         54.7480  -28.8510  -19.4660 N.3   487  VAL487     -0.1231
     86  CA        55.1440  -29.6590  -18.2990 C.3   487  VAL487      0.1692
     87  C         56.6340  -29.4360  -17.9920 C.2   487  VAL487      0.2592
     88  O         57.4350  -29.2490  -18.9060 O.2   487  VAL487     -0.2718
     89  CB        54.8400  -31.1850  -18.4730 C.3   487  VAL487      0.0266
     90  CG1       55.9190  -32.0340  -17.8370 C.3   487  VAL487      0.0020
     91  CG2       53.4760  -31.5500  -17.8850 C.3   487  VAL487      0.0020
     92  N         56.9920  -29.4140  -16.7090 N.am  488  ASP488     -0.1974
     93  CA        58.3970  -29.4520  -16.2950 C.3   488  ASP488      0.1709
     94  C         59.2170  -28.1870  -16.5640 C.2   488  ASP488      0.2293
     95  O         58.6650  -27.1290  -16.8430 O.2   488  ASP488     -0.2864
     96  CB        59.0940  -30.6650  -16.9270 C.3   488  ASP488      0.1436
     97  CG        59.0720  -31.8840  -16.0220 C.2   488  ASP488      0.3671
     98  OD1       57.9710  -32.2510  -15.5470 O.co2 488  ASP488     -0.2456
     99  OD2       60.1580  -32.4650  -15.7830 O.co2 488  ASP488     -0.2456
@<TRIPOS>BOND
     1    81    80    2
     2    73    74    1
     3    71    70    1
     4    71    72    1
     5    80    79    1
     6    70    67    1
     7    78    75   am
     8    78    79    1
     9    74    77    1
    10    74    75    1
    11    72    66    1
    12    75    76    2
    13    79    82    1
    14    82    84    1
    15    82    83    1
    16    67    66    1
    17    67    68    1
    18    66    60   am
    19    68    69    2
    20    64    63    1
    21    57    55    1
    22    60    59    1
    23    60    61    2
    24    59    58    1
    25    59    62    1
    26    63    62    1
    27    63    65    1
    28    54    53    2
    29    53    58   am
    30    53    52    1
    31    55    52    1
    32    55    56    1
    33    52    51    1
    34    85    86    1
    35    22    23    1
    36    22    21    1
    37    88    87    2
    38    89    86    1
    39    89    91    1
    40    89    90    1
    41    23    17    1
    42    21    18    1
    43    86    87    1
    44    51    46   am
    45    87    92   am
    46    47    46    2
    47    46    45    1
    48    20    19    2
    49    17    18    1
    50    18    19    1
    51    96    93    1
    52    96    97    1
    53    95    94    2
    54    92    93    1
    55    94    93    1
    56    50    48    1
    57    97    99   ar
    58    97    98   ar
    59    45    48    1
    60    45    44    1
    61    42    41    2
    62    48    49    1
    63    38    36   am
    64    44    41   am
    65    37    36    2
    66    41    40    1
    67    36    35    1
    68    30    28    1
    69    24    25    1
    70    43    40    1
    71    40    39    1
    72    39    33   am
    73    28    25    1
    74    28    29    1
    75    35    32    1
    76    25    26    1
    77    34    33    2
    78    33    32    1
    79    32    31    1
    80    27    26    2
    81    15    14    2
    82    14    13    1
    83    14    16   am
    84    13    10    1
    85    10    11    1
    86    10     9    1
    87    11    12    2
    88     7     6    1
    89     8     6    1
    90     6     5    1
    91     5     2    1
    92     1     2    1
    93     2     3    1
    94     3     4    2
