@<TRIPOS>MOLECULE
tmp/3ablD01.pdb
 90 87 0 0 0
SMALL
GASTEIGER

@<TRIPOS>ATOM
      1  N         41.3420  288.3460  226.0830 N.3    69  ASN69      -0.1225
      2  CA        41.5890  287.7930  224.7480 C.3    69  ASN69       0.1785
      3  C         40.2970  287.6380  223.9430 C.2    69  ASN69       0.2597
      4  O         40.3010  286.9780  222.8840 O.2    69  ASN69      -0.2718
      5  CB        42.1940  286.3500  224.8700 C.3    69  ASN69       0.1169
      6  CG        43.6530  286.3180  225.3320 C.2    69  ASN69       0.2627
      7  OD1       44.3440  287.3210  225.2750 O.2    69  ASN69      -0.2716
      8  ND2       44.1210  285.1330  225.8370 N.am   69  ASN69      -0.0877
      9  N         39.1790  288.1960  224.3970 N.am   70  ARG70      -0.1966
     10  CA        37.9710  287.8970  223.7170 C.3    70  ARG70       0.1729
     11  C         37.8310  288.6350  222.3240 C.2    70  ARG70       0.2617
     12  O         38.3120  289.7170  222.1360 O.2    70  ARG70      -0.2715
     13  CB        36.7950  288.2290  224.5970 C.3    70  ARG70       0.0348
     14  CG        36.5010  289.7020  224.5350 C.3    70  ARG70       0.0492
     15  CD        35.3170  290.0720  225.4310 C.3    70  ARG70       0.2205
     16  NE        35.3670  291.5120  225.6700 N.pl3  70  ARG70      -0.0865
     17  CZ        36.0170  292.0950  226.6740 C.cat  70  ARG70       0.5346
     18  NH1       36.6560  291.3720  227.5950 N.pl3  70  ARG70       0.1354
     19  NH2       35.9890  293.4300  226.7770 N.pl3  70  ARG70       0.1354
     20  N         37.1840  288.0210  221.3610 N.am   71  SER71      -0.1936
     21  CA        37.0070  288.6900  220.0840 C.3    71  SER71       0.2055
     22  C         35.7260  289.6050  220.2160 C.2    71  SER71       0.2643
     23  O         35.0430  289.5970  221.2310 O.2    71  SER71      -0.2714
     24  CB        36.8950  287.6090  219.0170 C.3    71  SER71       0.2130
     25  OG        35.7120  286.9590  219.3880 O.3    71  SER71      -0.2179
     26  N         35.5170  290.5090  219.2680 N.am   72  THR72      -0.1950
     27  CA        34.4870  291.5800  219.3780 C.3    72  THR72       0.1897
     28  C         33.7530  291.5950  218.0170 C.2    72  THR72       0.2313
     29  O         34.1230  290.8850  217.0730 O.2    72  THR72      -0.2863
     30  CB        35.1340  292.9730  219.6190 C.3    72  THR72       0.1794
     31  OG1       35.7630  293.4340  218.3860 O.3    72  THR72      -0.2208
     32  CG2       36.2120  292.8900  220.7300 C.3    72  THR72       0.0378
     33  N         33.5980  294.4320  216.3230 N.3    74  GLU74      -0.1231
     34  CA        34.0920  295.6140  215.6820 C.3    74  GLU74       0.1699
     35  C         34.1950  295.4500  214.1320 C.2    74  GLU74       0.2592
     36  O         34.0370  296.4300  213.4020 O.2    74  GLU74      -0.2718
     37  CB        35.4690  296.0300  216.2400 C.3    74  GLU74       0.0402
     38  CG        35.8360  297.4010  215.7830 C.3    74  GLU74       0.1161
     39  CD        37.3220  297.7510  216.1570 C.2    74  GLU74       0.3649
     40  OE1       37.6360  298.9510  216.3500 O.co2  74  GLU74      -0.2457
     41  OE2       38.1500  296.8110  216.2550 O.co2  74  GLU74      -0.2457
     42  N         34.4960  294.2380  213.6210 N.am   75  TRP75      -0.1976
     43  CA        34.7670  294.1350  212.2000 C.3    75  TRP75       0.1640
     44  C         33.5310  294.5260  211.4400 C.2    75  TRP75       0.2290
     45  O         33.6240  295.0240  210.3140 O.2    75  TRP75      -0.2864
     46  CB        35.2660  292.7280  211.8140 C.3    75  TRP75       0.0576
     47  CG        34.2730  291.6520  212.0580 C.ar   75  TRP75       0.0006
     48  CD1       34.0400  290.9020  213.2510 C.ar   75  TRP75       0.0946
     49  CD2       33.3260  291.1470  211.0810 C.ar   75  TRP75       0.0152
     50  NE1       32.9920  289.9770  213.0280 N.ar   75  TRP75      -0.2442
     51  CE2       32.5410  290.1200  211.7240 C.ar   75  TRP75       0.0810
     52  CE3       33.0740  291.4550  209.7070 C.ar   75  TRP75       0.0012
     53  CZ2       31.5580  289.4100  211.0390 C.ar   75  TRP75       0.0191
     54  CZ3       32.0470  290.7970  209.0500 C.ar   75  TRP75       0.0001
     55  CH2       31.3160  289.7420  209.7170 C.ar   75  TRP75       0.0015
     56  N         33.4740  298.2380  211.1010 N.3    78  VAL78      -0.1231
     57  CA        34.5590  298.7470  210.2270 C.3    78  VAL78       0.1692
     58  C         34.1960  298.4200  208.7160 C.2    78  VAL78       0.2591
     59  O         34.1370  299.3130  207.8860 O.2    78  VAL78      -0.2718
     60  CB        35.8970  298.0880  210.5910 C.3    78  VAL78       0.0266
     61  CG1       36.9300  298.4140  209.5370 C.3    78  VAL78       0.0020
     62  CG2       36.4530  298.5660  212.0470 C.3    78  VAL78       0.0020
     63  N         33.8340  297.1630  208.4260 N.am   79  VAL79      -0.1980
     64  CA        33.4830  296.7730  207.0790 C.3    79  VAL79       0.1595
     65  C         32.2120  297.5050  206.5950 C.2    79  VAL79       0.2287
     66  O         32.1570  298.0310  205.4680 O.2    79  VAL79      -0.2864
     67  CB        33.2810  295.2800  206.9520 C.3    79  VAL79       0.0276
     68  CG1       32.8440  294.9580  205.4200 C.3    79  VAL79       0.0022
     69  CG2       34.6340  294.5720  207.3000 C.3    79  VAL79       0.0022
     70  N         32.9900  301.2640  206.0820 N.3    82  ALA82      -0.1231
     71  CA        33.8670  301.4660  204.9240 C.3    82  ALA82       0.1694
     72  C         33.0080  301.3830  203.6430 C.2    82  ALA82       0.2591
     73  O         33.1120  302.1780  202.7230 O.2    82  ALA82      -0.2718
     74  CB        34.9870  300.3910  204.8680 C.3    82  ALA82       0.0304
     75  N         32.2270  300.3560  203.5330 N.am   83  MET83      -0.1979
     76  CA        31.2610  300.2690  202.3680 C.3    83  MET83       0.1605
     77  C         30.3290  301.4830  202.2480 C.2    83  MET83       0.2287
     78  O         30.0200  301.9930  201.1360 O.2    83  MET83      -0.2864
     79  CB        30.5210  298.9640  202.4650 C.3    83  MET83       0.0413
     80  CG        31.4320  297.8120  202.2200 C.3    83  MET83       0.0598
     81  SD        30.4400  296.2530  202.2580 S.3    83  MET83      -0.1393
     82  CE        30.0600  296.3430  200.4840 C.3    83  MET83       0.0692
     83  N         32.3530  304.2920  200.7900 N.3    86  ILE86      -0.1245
     84  CA        32.7300  303.9220  199.4280 C.3    86  ILE86       0.1561
     85  C         31.4680  304.1350  198.5670 C.2    86  ILE86       0.2260
     86  O         31.5310  304.6560  197.4190 O.2    86  ILE86      -0.2867
     87  CB        33.3110  302.4970  199.2800 C.3    86  ILE86       0.0252
     88  CG1       34.7520  302.4230  199.8070 C.3    86  ILE86       0.0019
     89  CG2       33.1780  302.0150  197.7530 C.3    86  ILE86       0.0019
     90  CD1       35.1920  300.9890  200.2150 C.3    86  ILE86       0.0001
@<TRIPOS>BOND
     1    86    85    2
     2    89    87    1
     3    85    84    1
     4    87    84    1
     5    87    88    1
     6    84    83    1
     7    88    90    1
     8    82    81    1
     9    78    77    2
    10    80    81    1
    11    80    79    1
    12    77    76    1
    13    76    79    1
    14    76    75    1
    15    73    72    2
    16    75    72   am
    17    72    71    1
    18    74    71    1
    19    71    70    1
    20    68    67    1
    21    66    65    2
    22    65    64    1
    23    67    64    1
    24    67    69    1
    25    64    63    1
    26    59    58    2
    27    63    58   am
    28    58    57    1
    29    54    52   ar
    30    54    55   ar
    31    61    60    1
    32    52    49   ar
    33    55    53   ar
    34    57    60    1
    35    57    56    1
    36    45    44    2
    37    60    62    1
    38    53    51   ar
    39    49    51   ar
    40    49    47   ar
    41    44    43    1
    42    51    50   ar
    43    46    47    1
    44    46    43    1
    45    47    48   ar
    46    43    42    1
    47    50    48   ar
    48    36    35    2
    49    42    35   am
    50    35    34    1
    51    34    37    1
    52    34    33    1
    53    38    39    1
    54    38    37    1
    55    39    41   ar
    56    39    40   ar
    57    29    28    2
    58    28    27    1
    59    31    30    1
    60    24    25    1
    61    24    21    1
    62    26    27    1
    63    26    22   am
    64    27    30    1
    65    30    32    1
    66    21    22    1
    67    21    20    1
    68    22    23    2
    69    20    11   am
    70    12    11    2
    71    11    10    1
    72     4     3    2
    73    10     9    1
    74    10    13    1
    75     3     9   am
    76     3     2    1
    77    14    13    1
    78    14    15    1
    79     2     5    1
    80     2     1    1
    81     5     6    1
    82     7     6    2
    83     6     8   am
    84    15    16    1
    85    16    17    2
    86    17    19    1
    87    17    18    1
