@<TRIPOS>MOLECULE
tmp/3aboA00.pdb
 189 185 0 0 0
SMALL
GASTEIGER

@<TRIPOS>ATOM
      1  N         92.5710  -98.1270  -24.5350 N.3   193  ASN193     -0.1226
      2  CA        91.5170  -99.1380  -24.4830 C.3   193  ASN193      0.1770
      3  C         91.0580  -99.5700  -25.8830 C.2   193  ASN193      0.2439
      4  O         90.5060  -98.7710  -26.6290 O.2   193  ASN193     -0.2733
      5  CB        90.3270  -98.6250  -23.6680 C.3   193  ASN193      0.1168
      6  CG        90.7500  -97.9870  -22.3620 C.2   193  ASN193      0.2627
      7  OD1       91.2250  -96.8480  -22.3380 O.2   193  ASN193     -0.2716
      8  ND2       90.5970  -98.7220  -21.2680 N.am  193  ASN193     -0.0877
      9  N         91.3100 -100.8520  -26.2410 N.am  194  PRO194     -0.2718
     10  CA        91.0050 -101.3550  -27.5770 C.3   194  PRO194      0.1535
     11  C         89.5460 -101.8070  -27.7010 C.2   194  PRO194      0.2598
     12  O         88.9280 -102.1960  -26.7030 O.2   194  PRO194     -0.2715
     13  CB        91.9420 -102.5510  -27.7140 C.3   194  PRO194      0.0310
     14  CG        92.0800 -103.0760  -26.3260 C.3   194  PRO194      0.0237
     15  CD        91.9650 -101.8760  -25.3980 C.3   194  PRO194      0.0939
     16  N         89.0070 -101.7490  -28.9200 N.am  195  VAL195     -0.1964
     17  CA        87.6740 -102.3030  -29.2140 C.3   195  VAL195      0.1727
     18  C         87.6920 -103.8350  -29.1950 C.2   195  VAL195      0.2617
     19  O         86.8290 -104.4690  -28.5780 O.2   195  VAL195     -0.2715
     20  CB        87.1400 -101.8110  -30.6030 C.3   195  VAL195      0.0290
     21  CG1       85.6900 -102.2620  -30.8150 C.3   195  VAL195      0.0023
     22  CG2       87.2530 -100.3120  -30.7100 C.3   195  VAL195      0.0023
     23  N         88.6730 -104.4210  -29.8780 N.am  196  THR196     -0.1937
     24  CA        88.7290 -105.8690  -30.0430 C.3   196  THR196      0.2028
     25  C         89.9370 -106.4760  -29.3460 C.2   196  THR196      0.2642
     26  O         90.9790 -105.8250  -29.1930 O.2   196  THR196     -0.2714
     27  CB        88.7400 -106.2830  -31.5430 C.3   196  THR196      0.1808
     28  OG1       89.8130 -105.6190  -32.2180 O.3   196  THR196     -0.2208
     29  CG2       87.4210 -105.9200  -32.2080 C.3   196  THR196      0.0379
     30  N         89.8010 -107.7340  -28.9520 N.am  197  ASP197     -0.1971
     31  CA        90.4440 -108.2460  -27.7620 C.3   197  ASP197      0.1709
     32  C         91.1920 -109.5400  -28.1110 C.2   197  ASP197      0.2293
     33  O         90.6800 -110.6430  -27.8960 O.2   197  ASP197     -0.2864
     34  CB        89.3880 -108.5110  -26.6630 C.3   197  ASP197      0.1436
     35  CG        90.0080 -108.8880  -25.3300 C.2   197  ASP197      0.3671
     36  OD1       90.4410 -107.9850  -24.5970 O.co2 197  ASP197     -0.2456
     37  OD2       90.0340 -110.0830  -25.0090 O.co2 197  ASP197     -0.2456
     38  N         94.8400 -101.7010  -23.1020 N.3   225  LEU225     -0.1231
     39  CA        94.1170 -101.9640  -21.8640 C.3   225  LEU225      0.1693
     40  C         93.0150 -103.0150  -22.0880 C.2   225  LEU225      0.2592
     41  O         91.9160 -102.9210  -21.5210 O.2   225  LEU225     -0.2718
     42  CB        93.5250 -100.6690  -21.3030 C.3   225  LEU225      0.0284
     43  CG        94.4920  -99.7820  -20.4870 C.3   225  LEU225      0.0019
     44  CD1       95.3280  -98.8720  -21.4080 C.3   225  LEU225      0.0001
     45  CD2       93.7330  -98.9600  -19.4590 C.3   225  LEU225      0.0001
     46  N         93.3250 -104.0120  -22.9150 N.am  226  ALA226     -0.1966
     47  CA        92.5600 -105.2520  -22.9630 C.3   226  ALA226      0.1728
     48  C         92.7160 -106.0590  -21.6620 C.2   226  ALA226      0.2616
     49  O         93.4840 -105.6810  -20.7740 O.2   226  ALA226     -0.2715
     50  CB        92.9860 -106.0760  -24.1500 C.3   226  ALA226      0.0334
     51  N         91.9820 -107.1690  -21.5630 N.am  227  HIS227     -0.1973
     52  CA        92.1770 -108.1290  -20.4700 C.3   227  HIS227      0.1656
     53  C         93.6290 -108.6080  -20.3960 C.2   227  HIS227      0.2291
     54  O         94.2940 -108.7680  -21.4250 O.2   227  HIS227     -0.2864
     55  CB        91.2360 -109.3230  -20.6300 C.3   227  HIS227      0.0771
     56  CG        91.0360 -110.1060  -19.3710 C.ar  227  HIS227      0.0820
     57  ND1       91.8420 -111.1680  -19.0190 N.ar  227  HIS227     -0.2267
     58  CD2       90.1260 -109.9790  -18.3770 C.ar  227  HIS227      0.1154
     59  CE1       91.4340 -111.6620  -17.8640 C.ar  227  HIS227      0.1986
     60  NE2       90.3930 -110.9590  -17.4540 N.ar  227  HIS227     -0.2212
     61  N         98.2990 -103.9630  -18.0330 N.3   245  PHE245     -0.1227
     62  CA        97.1340 -103.4180  -17.3400 C.3   245  PHE245      0.1736
     63  C         96.1960 -104.5360  -16.8630 C.2   245  PHE245      0.2595
     64  O         96.0230 -105.5460  -17.5460 O.2   245  PHE245     -0.2718
     65  CB        96.3690 -102.4490  -18.2570 C.3   245  PHE245      0.0547
     66  CG        95.0280 -102.0220  -17.7100 C.ar  245  PHE245     -0.0202
     67  CD1       93.8400 -102.6050  -18.1830 C.ar  245  PHE245     -0.0042
     68  CD2       94.9450 -101.0450  -16.7150 C.ar  245  PHE245     -0.0042
     69  CE1       92.6080 -102.2140  -17.6760 C.ar  245  PHE245     -0.0003
     70  CE2       93.7230 -100.6550  -16.2090 C.ar  245  PHE245     -0.0003
     71  CZ        92.5450 -101.2390  -16.6920 C.ar  245  PHE245     -0.0000
     72  N         95.5850 -104.3340  -15.6930 N.am  246  GLN246     -0.1965
     73  CA        94.3370 -105.0320  -15.3360 C.3   246  GLN246      0.1733
     74  C         93.4340 -104.1370  -14.4780 C.2   246  GLN246      0.2617
     75  O         93.9070 -103.4500  -13.5710 O.2   246  GLN246     -0.2715
     76  CB        94.6540 -106.3480  -14.5920 C.3   246  GLN246      0.0408
     77  CG        93.4500 -107.3260  -14.4350 C.3   246  GLN246      0.0908
     78  CD        92.5310 -107.3590  -15.6580 C.2   246  GLN246      0.2608
     79  OE1       92.9680 -107.6380  -16.7740 O.2   246  GLN246     -0.2717
     80  NE2       91.2540 -107.0940  -15.4390 N.am  246  GLN246     -0.0878
     81  N         92.1360 -104.1380  -14.7870 N.am  247  SER247     -0.1950
     82  CA        91.1150 -103.7150  -13.8220 C.3   247  SER247      0.1924
     83  C         90.9970 -104.7150  -12.6850 C.2   247  SER247      0.2314
     84  O         90.8910 -105.9210  -12.9140 O.2   247  SER247     -0.2863
     85  CB        89.7580 -103.5480  -14.5110 C.3   247  SER247      0.2116
     86  OG        89.8320 -102.6140  -15.5700 O.3   247  SER247     -0.2180
     87  N         84.2080 -112.0750  -11.2400 N.3   257  GLU257     -0.1231
     88  CA        83.4070 -111.2420  -12.1540 C.3   257  GLU257      0.1699
     89  C         84.2600 -110.6790  -13.3120 C.2   257  GLU257      0.2592
     90  O         83.8280 -110.6770  -14.4740 O.2   257  GLU257     -0.2718
     91  CB        82.7340 -110.0950  -11.3790 C.3   257  GLU257      0.0402
     92  CG        81.8990 -109.1490  -12.2450 C.3   257  GLU257      0.1161
     93  CD        80.4180 -109.5170  -12.2630 C.2   257  GLU257      0.3649
     94  OE1       79.5810 -108.6140  -12.1110 O.co2 257  GLU257     -0.2457
     95  OE2       80.0980 -110.7120  -12.4460 O.co2 257  GLU257     -0.2457
     96  N         85.4730 -110.2290  -12.9840 N.am  258  PHE258     -0.1976
     97  CA        86.3580 -109.5900  -13.9660 C.3   258  PHE258      0.1639
     98  C         87.1320 -110.6390  -14.8040 C.2   258  PHE258      0.2290
     99  O         87.7900 -110.2960  -15.7910 O.2   258  PHE258     -0.2864
    100  CB        87.3510 -108.6430  -13.2590 C.3   258  PHE258      0.0560
    101  CG        86.7440 -107.3040  -12.8450 C.ar  258  PHE258     -0.0200
    102  CD1       85.3780 -107.0360  -13.0450 C.ar  258  PHE258     -0.0042
    103  CD2       87.5400 -106.3180  -12.2540 C.ar  258  PHE258     -0.0042
    104  CE1       84.8230 -105.8030  -12.6630 C.ar  258  PHE258     -0.0003
    105  CE2       86.9860 -105.0760  -11.8690 C.ar  258  PHE258     -0.0003
    106  CZ        85.6340 -104.8250  -12.0730 C.ar  258  PHE258     -0.0000
    107  N         82.3050 -100.8390   -8.0610 N.3   292  SER292     -0.1217
    108  CA        82.5730 -102.0090   -8.9160 C.3   292  SER292      0.1889
    109  C         82.2410 -103.3230   -8.1970 C.2   292  SER292      0.2288
    110  O         81.6690 -104.2460   -8.7960 O.2   292  SER292     -0.2866
    111  CB        84.0290 -102.0130   -9.3800 C.3   292  SER292      0.2089
    112  OG        84.9060 -102.2920   -8.3010 O.3   292  SER292     -0.2183
    113  N         78.4550 -103.5100   -7.9300 N.3   295  SER295     -0.1217
    114  CA        77.9800 -103.9830   -9.2460 C.3   295  SER295      0.1889
    115  C         78.1040 -105.5000   -9.3900 C.2   295  SER295      0.2288
    116  O         77.2520 -106.1450  -10.0050 O.2   295  SER295     -0.2866
    117  CB        78.7410 -103.2880  -10.3740 C.3   295  SER295      0.2089
    118  OG        78.2550 -103.6980  -11.6430 O.3   295  SER295     -0.2183
    119  N         89.0280  -94.6040  -11.4470 N.3   326  VAL326     -0.1245
    120  CA        88.2770  -93.9650  -12.4860 C.3   326  VAL326      0.1561
    121  C         86.9740  -93.4360  -11.9240 C.2   326  VAL326      0.2260
    122  O         85.9650  -94.1300  -11.9210 O.2   326  VAL326     -0.2867
    123  CB        87.9880  -94.9450  -13.6780 C.3   326  VAL326      0.0252
    124  CG1       87.8450  -94.1820  -14.9520 C.3   326  VAL326      0.0019
    125  CG2       89.0990  -95.9800  -13.8020 C.3   326  VAL326      0.0019
    126  N         83.2790  -93.2420  -13.4110 N.3   329  PHE329     -0.1227
    127  CA        83.3030  -93.9530  -14.7090 C.3   329  PHE329      0.1736
    128  C         81.9620  -94.5910  -15.0460 C.2   329  PHE329      0.2595
    129  O         81.6390  -94.7890  -16.2200 O.2   329  PHE329     -0.2718
    130  CB        84.3940  -95.0140  -14.7200 C.3   329  PHE329      0.0547
    131  CG        84.6560  -95.6080  -16.0880 C.ar  329  PHE329     -0.0202
    132  CD1       84.4480  -96.9680  -16.3230 C.ar  329  PHE329     -0.0042
    133  CD2       85.1090  -94.8050  -17.1440 C.ar  329  PHE329     -0.0042
    134  CE1       84.6900  -97.5220  -17.5880 C.ar  329  PHE329     -0.0003
    135  CE2       85.3560  -95.3530  -18.4020 C.ar  329  PHE329     -0.0003
    136  CZ        85.1430  -96.7180  -18.6220 C.ar  329  PHE329     -0.0000
    137  N         81.1940  -94.9410  -14.0150 N.am  330  ILE330     -0.1980
    138  CA        80.0600  -95.8650  -14.1800 C.3   330  ILE330      0.1595
    139  C         78.7200  -95.1130  -14.2690 C.2   330  ILE330      0.2287
    140  O         77.9860  -95.2390  -15.2650 O.2   330  ILE330     -0.2864
    141  CB        80.0000  -96.9170  -13.0320 C.3   330  ILE330      0.0276
    142  CG1       81.2860  -97.7600  -13.0090 C.3   330  ILE330      0.0022
    143  CG2       78.7740  -97.8160  -13.1960 C.3   330  ILE330      0.0022
    144  CD1       81.5670  -98.4290  -11.6640 C.3   330  ILE330      0.0001
    145  N         74.2950  -94.0390   -9.9840 N.3   333  GLU333     -0.1231
    146  CA        73.8000  -95.0190   -9.0200 C.3   333  GLU333      0.1699
    147  C         74.8260  -95.3130   -7.9050 C.2   333  GLU333      0.2592
    148  O         74.4670  -95.8060   -6.8390 O.2   333  GLU333     -0.2718
    149  CB        73.3760  -96.3290   -9.7340 C.3   333  GLU333      0.0402
    150  CG        74.5360  -97.1050  -10.4050 C.3   333  GLU333      0.1161
    151  CD        74.7000  -96.7650  -11.8840 C.2   333  GLU333      0.3649
    152  OE1       74.5010  -95.5970  -12.2520 O.co2 333  GLU333     -0.2457
    153  OE2       75.0400  -97.6680  -12.6670 O.co2 333  GLU333     -0.2457
    154  N         76.0970  -94.9880   -8.1640 N.am  334  TYR334     -0.1976
    155  CA        77.1550  -95.1560   -7.1550 C.3   334  TYR334      0.1639
    156  C         77.6990  -93.8280   -6.6600 C.2   334  TYR334      0.2290
    157  O         77.9680  -93.6640   -5.4650 O.2   334  TYR334     -0.2864
    158  CB        78.2850  -96.0340   -7.6940 C.3   334  TYR334      0.0560
    159  CG        77.8080  -97.3590   -8.2270 C.ar  334  TYR334     -0.0198
    160  CD1       78.1660  -97.7880   -9.4970 C.ar  334  TYR334     -0.0009
    161  CD2       76.9730  -98.1820   -7.4620 C.ar  334  TYR334     -0.0009
    162  CE1       77.7140  -99.0140   -9.9990 C.ar  334  TYR334      0.0417
    163  CE2       76.5170  -99.4010   -7.9520 C.ar  334  TYR334      0.0417
    164  CZ        76.8890  -99.8110   -9.2180 C.ar  334  TYR334      0.1957
    165  OH        76.4350 -101.0110   -9.7050 O.3   334  TYR334     -0.2866
    166  N         84.0470  -93.2480  -27.5400 N.3   401  MET401     -0.1230
    167  CA        84.2940  -94.6710  -27.6370 C.3   401  MET401      0.1702
    168  C         84.0170  -95.3800  -26.3060 C.2   401  MET401      0.2592
    169  O         83.3590  -96.4220  -26.2720 O.2   401  MET401     -0.2718
    170  CB        85.7290  -94.9210  -28.0880 C.3   401  MET401      0.0401
    171  CG        86.0780  -96.3220  -28.2170 C.3   401  MET401      0.0596
    172  SD        87.1420  -96.8720  -26.9020 S.3   401  MET401     -0.1393
    173  CE        87.4370  -98.5360  -27.4330 C.3   401  MET401      0.0692
    174  N         84.5280  -94.8080  -25.2170 N.am  402  LEU402     -0.1966
    175  CA        84.1490  -95.2370  -23.8700 C.3   402  LEU402      0.1728
    176  C         82.9860  -94.4260  -23.3360 C.2   402  LEU402      0.2616
    177  O         82.4550  -94.7180  -22.2530 O.2   402  LEU402     -0.2715
    178  CB        85.3430  -95.1290  -22.9150 C.3   402  LEU402      0.0311
    179  CG        86.4420  -96.1740  -23.0730 C.3   402  LEU402      0.0022
    180  CD1       87.5960  -95.8750  -22.1440 C.3   402  LEU402      0.0001
    181  CD2       85.9000  -97.5390  -22.8090 C.3   402  LEU402      0.0001
    182  N         82.5940  -93.3890  -24.0950 N.am  403  ASN403     -0.1972
    183  CA        81.3320  -92.6590  -23.8550 C.3   403  ASN403      0.1688
    184  C         81.2860  -92.0010  -22.4750 C.2   403  ASN403      0.2292
    185  O         80.3370  -92.1930  -21.7070 O.2   403  ASN403     -0.2864
    186  CB        80.1240  -93.5780  -24.0590 C.3   403  ASN403      0.1181
    187  CG        80.0070  -94.0850  -25.4950 C.2   403  ASN403      0.2629
    188  OD1       80.8340  -93.7630  -26.3520 O.2   403  ASN403     -0.2716
    189  ND2       78.9780  -94.8780  -25.7570 N.am  403  ASN403     -0.0877
@<TRIPOS>BOND
     1    28    27    1
     2    29    27    1
     3    27    24    1
     4    21    20    1
     5    22    20    1
     6    20    17    1
     7    24    23    1
     8    24    25    1
     9    23    18   am
    10    25    26    2
    11    25    30   am
    12    17    18    1
    13    17    16    1
    14    18    19    2
    15    30    31    1
    16    16    11   am
    17   171   170    1
    18   171   172    1
    19    32    33    2
    20    32    31    1
    21   170   167    1
    22    31    34    1
    23    13    10    1
    24    13    14    1
    25    11    10    1
    26    11    12    2
    27   167   166    1
    28   167   168    1
    29    10     9    1
    30   173   172    1
    31    34    35    1
    32     4     3    2
    33   188   187    2
    34    14    15    1
    35   168   169    2
    36   168   174   am
    37     9     3   am
    38     9    15    1
    39     3     2    1
    40   189   187   am
    41   187   186    1
    42    35    37   ar
    43    35    36   ar
    44   174   175    1
    45     1     2    1
    46     2     5    1
    47    50    47    1
    48   182   183    1
    49   182   176   am
    50   186   183    1
    51   175   176    1
    52   175   178    1
    53   183   184    1
    54     5     6    1
    55   176   177    2
    56    38    39    1
    57   179   178    1
    58   179   181    1
    59   179   180    1
    60    47    46    1
    61    47    48    1
    62    46    40   am
    63   184   185    2
    64     6     7    2
    65     6     8   am
    66    40    39    1
    67    40    41    2
    68    39    42    1
    69    48    51   am
    70    48    49    2
    71    51    52    1
    72    54    53    2
    73    44    43    1
    74    42    43    1
    75    55    52    1
    76    55    56    1
    77    43    45    1
    78    52    53    1
    79    56    57   ar
    80    56    58   ar
    81    57    59   ar
    82   136   135   ar
    83   136   134   ar
    84   135   133   ar
    85    58    60   ar
    86    65    66    1
    87    65    62    1
    88    67    66   ar
    89    67    69   ar
    90    61    62    1
    91    59    60   ar
    92    66    68   ar
    93    69    71   ar
    94   134   132   ar
    95    64    63    2
    96    62    63    1
    97   133   131   ar
    98    63    72   am
    99    79    78    2
   100    68    70   ar
   101    71    70   ar
   102   132   131   ar
   103   129   128    2
   104   131   130    1
   105    99    98    2
   106    72    73    1
   107    78    80   am
   108    78    77    1
   109    86    85    1
   110    73    76    1
   111    73    74    1
   112   140   139    2
   113   128   127    1
   114   128   137   am
   115   124   123    1
   116    98    97    1
   117    81    74   am
   118    81    82    1
   119   130   127    1
   120   127   126    1
   121    76    77    1
   122    85    82    1
   123    74    75    2
   124    90    89    2
   125   139   138    1
   126   138   137    1
   127   138   141    1
   128    97   100    1
   129    97    96    1
   130    82    83    1
   131   125   123    1
   132   123   120    1
   133    89    96   am
   134    89    88    1
   135   100   101    1
   136   143   141    1
   137   102   101   ar
   138   102   104   ar
   139   141   142    1
   140   142   144    1
   141    84    83    2
   142   101   103   ar
   143   153   151   ar
   144   104   106   ar
   145   120   121    1
   146   120   119    1
   147    95    93   ar
   148    93    92    1
   149    93    94   ar
   150   103   105   ar
   151   152   151   ar
   152    92    91    1
   153    88    91    1
   154    88    87    1
   155   106   105   ar
   156   121   122    2
   157   151   150    1
   158   118   117    1
   159   150   149    1
   160   117   114    1
   161   116   115    2
   162   162   160   ar
   163   162   164   ar
   164   145   146    1
   165   149   146    1
   166   165   164    1
   167   160   159   ar
   168   115   114    1
   169   111   108    1
   170   111   112    1
   171   114   113    1
   172   164   163   ar
   173   146   147    1
   174   108   109    1
   175   108   107    1
   176   110   109    2
   177   159   158    1
   178   159   161   ar
   179   154   147   am
   180   154   155    1
   181   163   161   ar
   182   147   148    2
   183   158   155    1
   184   155   156    1
   185   156   157    2
