@<TRIPOS>MOLECULE
tmp/3aboB00.pdb
 171 163 0 0 0
SMALL
GASTEIGER

@<TRIPOS>ATOM
      1  N         65.2540  -95.9770  -13.0380 N.3    90  TYR90      -0.1241
      2  CA        66.2330  -96.7900  -13.7970 C.3    90  TYR90       0.1605
      3  C         67.6720  -96.3800  -13.5000 C.2    90  TYR90       0.2264
      4  O         68.5560  -97.2350  -13.3540 O.2    90  TYR90      -0.2867
      5  CB        65.9610  -96.7080  -15.3110 C.3    90  TYR90       0.0534
      6  CG        66.9610  -97.4890  -16.1470 C.ar   90  TYR90      -0.0201
      7  CD1       68.0010  -96.8370  -16.8230 C.ar   90  TYR90      -0.0009
      8  CD2       66.8840  -98.8830  -16.2410 C.ar   90  TYR90      -0.0009
      9  CE1       68.9300  -97.5520  -17.5780 C.ar   90  TYR90       0.0417
     10  CE2       67.8120  -99.6090  -16.9960 C.ar   90  TYR90       0.0417
     11  CZ        68.8270  -98.9400  -17.6630 C.ar   90  TYR90       0.1957
     12  OH        69.7410  -99.6490  -18.4050 O.3    90  TYR90      -0.2866
     13  N         70.1010 -100.0900  -10.4970 N.3    94  PRO94      -0.2116
     14  CA        70.5300 -101.1300  -11.4430 C.3    94  PRO94       0.1372
     15  C         70.0480 -102.5330  -11.0360 C.2    94  PRO94       0.2244
     16  O         69.8370 -103.3850  -11.9010 O.2    94  PRO94      -0.2868
     17  CB        72.0660 -101.0510  -11.3790 C.3    94  PRO94       0.0268
     18  CG        72.3610 -100.4100  -10.0700 C.3    94  PRO94       0.0207
     19  CD        71.2470  -99.4610   -9.8110 C.3    94  PRO94       0.0892
     20  N         67.9860 -105.3760  -13.4110 N.3    98  ARG98      -0.1245
     21  CA        68.5570 -106.6960  -13.6840 C.3    98  ARG98       0.1563
     22  C         67.5320 -107.8280  -13.4600 C.2    98  ARG98       0.2260
     23  O         67.8390 -109.0020  -13.6660 O.2    98  ARG98      -0.2867
     24  CB        69.8080 -106.9310  -12.8170 C.3    98  ARG98       0.0307
     25  CG        71.0360 -106.1300  -13.2610 C.3    98  ARG98       0.0489
     26  CD        72.0540 -105.9760  -12.1250 C.3    98  ARG98       0.2205
     27  NE        73.2590 -105.2590  -12.5630 N.pl3  98  ARG98      -0.0865
     28  CZ        74.4100 -105.2370  -11.8910 C.cat  98  ARG98       0.5346
     29  NH1       74.5280 -105.8940  -10.7410 N.pl3  98  ARG98       0.1354
     30  NH2       75.4430 -104.5610  -12.3700 N.pl3  98  ARG98       0.1354
     31  N         70.6230  -97.6380  -21.6980 N.3   126  LEU126     -0.1245
     32  CA        70.9880  -96.2810  -21.3150 C.3   126  LEU126      0.1561
     33  C         70.9410  -95.3050  -22.5060 C.2   126  LEU126      0.2260
     34  O         71.1100  -94.0920  -22.3330 O.2   126  LEU126     -0.2867
     35  CB        72.3710  -96.2630  -20.6680 C.3   126  LEU126      0.0270
     36  CG        72.4380  -96.7030  -19.2060 C.3   126  LEU126      0.0019
     37  CD1       73.8750  -97.0680  -18.8160 C.3   126  LEU126      0.0001
     38  CD2       71.8890  -95.6130  -18.2940 C.3   126  LEU126      0.0001
     39  N         66.1750 -102.2850  -19.2130 N.3   162  GLY162     -0.1210
     40  CA        66.9860 -103.4890  -19.0030 C.3   162  GLY162      0.1956
     41  C         68.4270 -103.1720  -18.6410 C.2   162  GLY162      0.2612
     42  O         69.0450 -102.2690  -19.2220 O.2   162  GLY162     -0.2717
     43  N         68.9630 -103.9130  -17.6750 N.am  163  ARG163     -0.1965
     44  CA        70.4130 -104.0220  -17.4930 C.3   163  ARG163      0.1729
     45  C         70.9020 -105.4040  -17.8900 C.2   163  ARG163      0.2616
     46  O         70.1190 -106.3290  -18.0020 O.2   163  ARG163     -0.2715
     47  CB        70.7920 -103.7300  -16.0390 C.3   163  ARG163      0.0348
     48  CG        70.2650 -102.4090  -15.5100 C.3   163  ARG163      0.0492
     49  CD        71.2200 -101.2860  -15.8050 C.3   163  ARG163      0.2205
     50  NE        70.8370 -100.0520  -15.1280 N.pl3 163  ARG163     -0.0865
     51  CZ        71.6270  -98.9920  -15.0020 C.cat 163  ARG163      0.5346
     52  NH1       71.1920  -97.9110  -14.3690 N.pl3 163  ARG163      0.1354
     53  NH2       72.8570  -99.0110  -15.5080 N.pl3 163  ARG163      0.1354
     54  N         72.2140 -105.5320  -18.0910 N.am  164  VAL164     -0.1963
     55  CA        72.7830 -106.6580  -18.8600 C.3   164  VAL164      0.1727
     56  C         72.5080 -108.0230  -18.1830 C.2   164  VAL164      0.2616
     57  O         72.2360 -109.0160  -18.8590 O.2   164  VAL164     -0.2715
     58  CB        74.3290 -106.4670  -19.1030 C.3   164  VAL164      0.0290
     59  CG1       74.9610 -107.7500  -19.6270 C.3   164  VAL164      0.0023
     60  CG2       74.5700 -105.3310  -20.0650 C.3   164  VAL164      0.0023
     61  N         72.5360 -108.0390  -16.8430 N.am  165  LYS165     -0.1977
     62  CA        72.3940 -109.2990  -16.0670 C.3   165  LYS165      0.1596
     63  C         70.9630 -109.9010  -16.1440 C.2   165  LYS165      0.2287
     64  O         70.7320 -111.0350  -15.6990 O.2   165  LYS165     -0.2864
     65  CB        72.7900 -109.0800  -14.6050 C.3   165  LYS165      0.0298
     66  CG        74.2850 -108.9550  -14.3720 C.3   165  LYS165      0.0038
     67  CD        74.5930 -108.6660  -12.9010 C.3   165  LYS165      0.0206
     68  CE        75.9340 -109.2480  -12.4840 C.3   165  LYS165      0.1093
     69  NZ        77.0360 -108.7880  -13.3560 N.3   165  LYS165     -0.1314
     70  N         71.7830 -103.8570  -26.6400 N.3   183  VAL183     -0.1231
     71  CA        71.4530 -102.8820  -25.6040 C.3   183  VAL183      0.1692
     72  C         72.1880 -101.5380  -25.8350 C.2   183  VAL183      0.2593
     73  O         73.3210 -101.5110  -26.3410 O.2   183  VAL183     -0.2718
     74  CB        71.7580 -103.4520  -24.1400 C.3   183  VAL183      0.0266
     75  CG1       73.2400 -103.6160  -23.9230 C.3   183  VAL183      0.0020
     76  CG2       71.1400 -102.5540  -23.0620 C.3   183  VAL183      0.0020
     77  N         71.5170 -100.4350  -25.4960 N.am  184  GLY184     -0.1942
     78  CA        72.1280  -99.1180  -25.5510 C.3   184  GLY184      0.2014
     79  C         73.1150  -98.8910  -24.4260 C.2   184  GLY184      0.2639
     80  O         72.7310  -98.8180  -23.2540 O.2   184  GLY184     -0.2714
     81  N         74.3910  -98.7790  -24.7780 N.am  185  GLU185     -0.1963
     82  CA        75.4050  -98.3120  -23.8360 C.3   185  GLU185      0.1733
     83  C         75.2690  -96.8100  -23.5740 C.2   185  GLU185      0.2616
     84  O         74.6210  -96.0840  -24.3530 O.2   185  GLU185     -0.2715
     85  CB        76.8180  -98.6510  -24.3420 C.3   185  GLU185      0.0429
     86  CG        77.2460  -97.8850  -25.5800 C.3   185  GLU185      0.1163
     87  CD        78.2900  -98.6290  -26.3980 C.2   185  GLU185      0.3649
     88  OE1       78.0860  -99.8270  -26.6820 O.co2 185  GLU185     -0.2457
     89  OE2       79.3120  -98.0120  -26.7560 O.co2 185  GLU185     -0.2457
     90  N         75.8630  -96.3490  -22.4700 N.am  186  ARG186     -0.1977
     91  CA        75.6480  -94.9810  -21.9890 C.3   186  ARG186      0.1597
     92  C         76.0970  -93.9420  -23.0380 C.2   186  ARG186      0.2287
     93  O         77.0620  -94.1720  -23.7670 O.2   186  ARG186     -0.2864
     94  CB        76.3700  -94.7540  -20.6300 C.3   186  ARG186      0.0334
     95  CG        77.8370  -94.2870  -20.7430 C.3   186  ARG186      0.0492
     96  CD        78.7910  -95.4650  -20.8580 C.3   186  ARG186      0.2205
     97  NE        80.1640  -95.0890  -20.5200 N.pl3 186  ARG186     -0.0865
     98  CZ        80.6780  -95.1470  -19.2930 C.cat 186  ARG186      0.5346
     99  NH1       81.9380  -94.7870  -19.0830 N.pl3 186  ARG186      0.1354
    100  NH2       79.9390  -95.5790  -18.2800 N.pl3 186  ARG186      0.1354
    101  N         75.7840 -102.0000  -28.0030 N.3   196  SER196     -0.1217
    102  CA        76.5730 -103.2060  -27.7230 C.3   196  SER196      0.1889
    103  C         75.7390 -104.4840  -27.8110 C.2   196  SER196      0.2288
    104  O         74.5360 -104.4840  -27.5070 O.2   196  SER196     -0.2866
    105  CB        77.2710 -103.1110  -26.3500 C.3   196  SER196      0.2089
    106  OG        76.8390 -101.9780  -25.6250 O.3   196  SER196     -0.2183
    107  N         75.7110 -108.0120  -25.8570 N.3   198  TYR198     -0.1241
    108  CA        76.1750 -108.9100  -24.8030 C.3   198  TYR198      0.1605
    109  C         75.5580 -110.2820  -24.9540 C.2   198  TYR198      0.2264
    110  O         74.3330 -110.4230  -24.9940 O.2   198  TYR198     -0.2867
    111  CB        75.8460 -108.3350  -23.4200 C.3   198  TYR198      0.0534
    112  CG        76.5870 -107.0590  -23.0920 C.ar  198  TYR198     -0.0201
    113  CD1       76.0310 -105.8170  -23.3810 C.ar  198  TYR198     -0.0009
    114  CD2       77.8460 -107.0940  -22.4890 C.ar  198  TYR198     -0.0009
    115  CE1       76.7090 -104.6290  -23.0760 C.ar  198  TYR198      0.0417
    116  CE2       78.5350 -105.9120  -22.1820 C.ar  198  TYR198      0.0417
    117  CZ        77.9580 -104.6860  -22.4810 C.ar  198  TYR198      0.1957
    118  OH        78.6280 -103.5170  -22.1800 O.3   198  TYR198     -0.2866
    119  N         80.2120 -111.9980  -15.0360 N.3   210  GLU210     -0.1231
    120  CA        80.2590 -111.0800  -16.1810 C.3   210  GLU210      0.1699
    121  C         81.2690 -111.5330  -17.2390 C.2   210  GLU210      0.2592
    122  O         81.0510 -111.3430  -18.4380 O.2   210  GLU210     -0.2718
    123  CB        80.5870 -109.6630  -15.7140 C.3   210  GLU210      0.0402
    124  CG        80.1250 -108.5670  -16.6520 C.3   210  GLU210      0.1161
    125  CD        78.5990 -108.5430  -16.8500 C.2   210  GLU210      0.3649
    126  OE1       78.1540 -108.1490  -17.9400 O.co2 210  GLU210     -0.2457
    127  OE2       77.8590 -108.9120  -15.9080 O.co2 210  GLU210     -0.2457
    128  N         82.3640 -112.1550  -16.7840 N.am  211  ALA211     -0.1980
    129  CA        83.4180 -112.6430  -17.6870 C.3   211  ALA211      0.1597
    130  C         82.9460 -113.8170  -18.5640 C.2   211  ALA211      0.2287
    131  O         83.5760 -114.1360  -19.5740 O.2   211  ALA211     -0.2864
    132  CB        84.6470 -113.0350  -16.8980 C.3   211  ALA211      0.0319
    133  N         80.3740 -113.6460  -20.3050 N.3   213  ARG213     -0.1245
    134  CA        79.7390 -113.0010  -21.4600 C.3   213  ARG213      0.1563
    135  C         80.7720 -112.5590  -22.4820 C.2   213  ARG213      0.2260
    136  O         81.8660 -112.1300  -22.1240 O.2   213  ARG213     -0.2867
    137  CB        78.8990 -111.8080  -21.0160 C.3   213  ARG213      0.0307
    138  CG        78.0180 -112.0860  -19.8340 C.3   213  ARG213      0.0489
    139  CD        77.1020 -110.9100  -19.5350 C.3   213  ARG213      0.2205
    140  NE        76.6920 -110.8840  -18.1330 N.pl3 213  ARG213     -0.0865
    141  CZ        75.7050 -111.6190  -17.6240 C.cat 213  ARG213      0.5346
    142  NH1       75.0080 -112.4370  -18.4050 N.pl3 213  ARG213      0.1354
    143  NH2       75.4110 -111.5320  -16.3380 N.pl3 213  ARG213      0.1354
    144  N         81.3060 -109.5900  -25.1440 N.3   215  CYS215     -0.1221
    145  CA        80.8600 -108.2680  -25.5520 C.3   215  CYS215      0.1808
    146  C         81.2960 -107.9660  -26.9860 C.2   215  CYS215      0.2601
    147  O         82.4660 -108.1190  -27.3320 O.2   215  CYS215     -0.2717
    148  CB        81.4100 -107.2020  -24.5940 C.3   215  CYS215      0.0970
    149  SG        80.9760 -105.5000  -25.0250 S.3   215  CYS215     -0.0800
    150  N         80.3430 -107.5450  -27.8160 N.am  216  ILE216     -0.1965
    151  CA        80.6600 -106.7790  -29.0290 C.3   216  ILE216      0.1727
    152  C         80.1230 -105.3590  -28.9280 C.2   216  ILE216      0.2617
    153  O         78.9160 -105.1440  -28.9260 O.2   216  ILE216     -0.2715
    154  CB        80.0770 -107.4590  -30.3160 C.3   216  ILE216      0.0290
    155  CG1       80.3980 -108.9730  -30.3340 C.3   216  ILE216      0.0022
    156  CG2       80.5980 -106.7540  -31.5900 C.3   216  ILE216      0.0023
    157  CD1       81.8930 -109.3020  -30.5240 C.3   216  ILE216      0.0001
    158  N         81.0320 -104.3930  -28.8410 N.am  217  SER217     -0.1936
    159  CA        80.6660 -103.0280  -28.4720 C.3   217  SER217      0.2055
    160  C         80.7720 -102.0810  -29.6610 C.2   217  SER217      0.2643
    161  O         81.2280 -102.4750  -30.7470 O.2   217  SER217     -0.2714
    162  CB        81.5410 -102.5340  -27.3300 C.3   217  SER217      0.2130
    163  OG        82.8510 -102.2430  -27.7820 O.3   217  SER217     -0.2179
    164  N         80.3370 -100.8260  -29.4540 N.am  218  ASN218     -0.1971
    165  CA        80.5370  -99.7340  -30.4420 C.3   218  ASN218      0.1688
    166  C         79.9680 -100.0610  -31.8240 C.2   218  ASN218      0.2292
    167  O         80.5620  -99.7130  -32.8550 O.2   218  ASN218     -0.2864
    168  CB        82.0230  -99.3520  -30.5450 C.3   218  ASN218      0.1181
    169  CG        82.5980  -98.8830  -29.2230 C.2   218  ASN218      0.2629
    170  OD1       83.2000  -99.6590  -28.4890 O.2   218  ASN218     -0.2716
    171  ND2       82.4130  -97.6000  -28.9170 N.am  218  ASN218     -0.0877
@<TRIPOS>BOND
     1   167   166    2
     2   166   165    1
     3   156   154    1
     4   161   160    2
     5   168   165    1
     6   168   169    1
     7   157   155    1
     8   165   164    1
     9   155   154    1
    10   154   151    1
    11   160   164   am
    12   160   159    1
    13   169   171   am
    14   169   170    2
    15   151   152    1
    16   151   150    1
    17   152   153    2
    18   152   158   am
    19   158   159    1
    20   159   162    1
    21   101   102    1
    22   150   146   am
    23   103   102    1
    24   103   104    2
    25   163   162    1
    26   102   105    1
    27   147   146    2
    28   146   145    1
    29    89    87   ar
    30    88    87   ar
    31    70    71    1
    32    87    86    1
    33   105   106    1
    34    73    72    2
    35   107   108    1
    36    72    71    1
    37    72    77   am
    38    71    74    1
    39    86    85    1
    40   145   144    1
    41   145   148    1
    42    78    77    1
    43    78    79    1
    44   149   148    1
    45   110   109    2
    46   109   108    1
    47   108   111    1
    48    81    79   am
    49    81    82    1
    50    79    80    2
    51    84    83    2
    52    85    82    1
    53    74    75    1
    54    74    76    1
    55    82    83    1
    56    93    92    2
    57    83    90   am
    58   111   112    1
    59   113   112   ar
    60   113   115   ar
    61   112   114   ar
    62   115   117   ar
    63    92    91    1
    64    33    34    2
    65    33    32    1
    66   114   116   ar
    67   135   136    2
    68   135   134    1
    69   117   116   ar
    70   117   118    1
    71    90    91    1
    72    91    94    1
    73    31    32    1
    74   134   137    1
    75   134   133    1
    76    32    35    1
    77   137   138    1
    78    96    95    1
    79    96    97    1
    80    95    94    1
    81    35    36    1
    82    97    98    2
    83    60    58    1
    84   138   139    1
    85    59    58    1
    86   131   130    2
    87   139   140    1
    88    98    99    1
    89    98   100    1
    90    42    41    2
    91    39    40    1
    92    36    37    1
    93    36    38    1
    94    58    55    1
    95    40    41    1
    96    55    56    1
    97    55    54    1
    98    57    56    2
    99    41    43   am
   100   130   129    1
   101   122   121    2
   102    12    11    1
   103   142   141    1
   104    56    61   am
   105   140   141    2
   106    54    45   am
   107    46    45    2
   108   126   125   ar
   109    45    44    1
   110   129   132    1
   111   129   128    1
   112    43    44    1
   113    11     9   ar
   114    11    10   ar
   115   141   143    1
   116     9     7   ar
   117    44    47    1
   118   121   128   am
   119   121   120    1
   120    10     8   ar
   121   125   124    1
   122   125   127   ar
   123    61    62    1
   124     7     6   ar
   125   124   123    1
   126     8     6   ar
   127   120   123    1
   128   120   119    1
   129     6     5    1
   130    63    62    1
   131    63    64    2
   132    62    65    1
   133    47    48    1
   134    49    48    1
   135    49    50    1
   136    53    51    1
   137     5     2    1
   138    50    51    2
   139    51    52    1
   140    65    66    1
   141    66    67    1
   142     2     3    1
   143     2     1    1
   144    21    22    1
   145    21    20    1
   146    21    24    1
   147    23    22    2
   148     3     4    2
   149    69    68    1
   150    25    24    1
   151    25    26    1
   152    67    68    1
   153    27    26    1
   154    27    28    2
   155    30    28    1
   156    16    15    2
   157    28    29    1
   158    14    17    1
   159    14    15    1
   160    14    13    1
   161    17    18    1
   162    13    19    1
   163    18    19    1
