@<TRIPOS>MOLECULE
tmp/3abrD00.pdb
 164 156 0 0 0
SMALL
GASTEIGER

@<TRIPOS>ATOM
      1  N         59.9030  -71.7390    1.4500 N.3    90  TYR90      -0.1241
      2  CA        60.4160  -70.5940    2.1930 C.3    90  TYR90       0.1605
      3  C         61.9020  -70.3700    1.9200 C.2    90  TYR90       0.2264
      4  O         62.3430  -69.2370    1.6870 O.2    90  TYR90      -0.2867
      5  CB        60.1880  -70.7710    3.6950 C.3    90  TYR90       0.0534
      6  CG        60.7590  -69.6310    4.5020 C.ar   90  TYR90      -0.0201
      7  CD1       62.0100  -69.7360    5.1100 C.ar   90  TYR90      -0.0009
      8  CD2       60.0650  -68.4340    4.6300 C.ar   90  TYR90      -0.0009
      9  CE1       62.5390  -68.6840    5.8370 C.ar   90  TYR90       0.0417
     10  CE2       60.5840  -67.3800    5.3550 C.ar   90  TYR90       0.0417
     11  CZ        61.8190  -67.5080    5.9570 C.ar   90  TYR90       0.1957
     12  OH        62.3330  -66.4550    6.6800 O.3    90  TYR90      -0.2866
     13  N         58.1970  -62.3010    1.8370 N.3    98  ARG98      -0.1245
     14  CA        58.1410  -60.8610    2.0570 C.3    98  ARG98       0.1563
     15  C         56.7750  -60.2710    1.7190 C.2    98  ARG98       0.2260
     16  O         56.5760  -59.0610    1.8290 O.2    98  ARG98      -0.2867
     17  CB        59.2190  -60.1530    1.2430 C.3    98  ARG98       0.0307
     18  CG        60.6020  -60.2390    1.8430 C.3    98  ARG98       0.0489
     19  CD        61.6210  -59.6770    0.8760 C.3    98  ARG98       0.2205
     20  NE        62.9880  -59.8420    1.3460 N.pl3  98  ARG98      -0.0865
     21  CZ        64.0510  -59.4590    0.6500 C.cat  98  ARG98       0.5346
     22  NH1       63.8920  -58.8860   -0.5370 N.pl3  98  ARG98       0.1354
     23  NH2       65.2710  -59.6480    1.1330 N.pl3  98  ARG98       0.1354
     24  N         63.8880  -67.8730   10.0280 N.3   126  LEU126     -0.1245
     25  CA        64.8430  -68.9270    9.6950 C.3   126  LEU126      0.1561
     26  C         65.1420  -69.8920   10.8420 C.2   126  LEU126      0.2260
     27  O         65.7940  -70.9230   10.6420 O.2   126  LEU126     -0.2867
     28  CB        66.1350  -68.3290    9.1530 C.3   126  LEU126      0.0270
     29  CG        66.1220  -68.0510    7.6500 C.3   126  LEU126      0.0019
     30  CD1       67.4220  -67.3740    7.2130 C.3   126  LEU126      0.0001
     31  CD2       65.8960  -69.3430    6.8820 C.3   126  LEU126      0.0001
     32  N         57.7910  -65.8890    7.5300 N.3   162  GLY162     -0.1210
     33  CA        58.0120  -64.4630    7.3040 C.3   162  GLY162      0.1956
     34  C         59.4430  -64.0950    6.9590 C.2   162  GLY162      0.2612
     35  O         60.3890  -64.7440    7.3990 O.2   162  GLY162     -0.2717
     36  N         59.5980  -63.0440    6.1620 N.am  163  ARG163     -0.1965
     37  CA        60.8820  -62.3790    6.0080 C.3   163  ARG163      0.1729
     38  C         60.7200  -60.9050    6.3780 C.2   163  ARG163      0.2616
     39  O         59.6110  -60.3660    6.3210 O.2   163  ARG163     -0.2715
     40  CB        61.4070  -62.5560    4.5780 C.3   163  ARG163      0.0348
     41  CG        61.1430  -63.9560    4.0170 C.3   163  ARG163      0.0492
     42  CD        62.2810  -64.5040    3.1550 C.3   163  ARG163      0.2205
     43  NE        63.4910  -64.7930    3.9170 N.pl3 163  ARG163     -0.0865
     44  CZ        64.3420  -65.7870    3.6490 C.cat 163  ARG163      0.5346
     45  NH1       64.1160  -66.6290    2.6450 N.pl3 163  ARG163      0.1354
     46  NH2       65.4250  -65.9440    4.3980 N.pl3 163  ARG163      0.1354
     47  N         61.8150  -60.2640    6.7790 N.am  164  VAL164     -0.1963
     48  CA        61.7460  -58.9600    7.4480 C.3   164  VAL164      0.1727
     49  C         60.9090  -57.9290    6.6930 C.2   164  VAL164      0.2616
     50  O         60.1150  -57.2110    7.2990 O.2   164  VAL164     -0.2715
     51  CB        63.1360  -58.3700    7.7410 C.3   164  VAL164      0.0290
     52  CG1       64.0230  -59.3940    8.4120 C.3   164  VAL164      0.0023
     53  CG2       63.7720  -57.8750    6.4740 C.3   164  VAL164      0.0023
     54  N         61.0700  -57.8750    5.3730 N.am  165  LYS165     -0.1977
     55  CA        60.4080  -56.8590    4.5520 C.3   165  LYS165      0.1596
     56  C         58.8800  -56.9730    4.5450 C.2   165  LYS165      0.2287
     57  O         58.1860  -56.0540    4.1120 O.2   165  LYS165     -0.2864
     58  CB        60.9630  -56.8700    3.1220 C.3   165  LYS165      0.0298
     59  CG        62.3740  -56.2800    2.9860 C.3   165  LYS165      0.0038
     60  CD        62.8720  -56.3540    1.5520 C.3   165  LYS165      0.0206
     61  CE        63.6140  -55.0870    1.1330 C.3   165  LYS165      0.1093
     62  NZ        64.9300  -54.8740    1.8050 N.3   165  LYS165     -0.1314
     63  N         62.1270  -62.0870   14.9070 N.3   183  VAL183     -0.1231
     64  CA        62.2750  -63.0980   13.8650 C.3   183  VAL183      0.1692
     65  C         63.5350  -63.9380   14.0840 C.2   183  VAL183      0.2593
     66  O         64.5990  -63.4100   14.4290 O.2   183  VAL183     -0.2718
     67  CB        62.3270  -62.4410   12.4650 C.3   183  VAL183      0.0266
     68  CG1       63.4600  -61.4310   12.3930 C.3   183  VAL183      0.0020
     69  CG2       62.4670  -63.4880   11.3720 C.3   183  VAL183      0.0020
     70  N         63.4120  -65.2480   13.8810 N.am  184  GLY184     -0.1942
     71  CA        64.5650  -66.1360   13.9250 C.3   184  GLY184      0.2014
     72  C         65.5920  -65.8150   12.8490 C.2   184  GLY184      0.2639
     73  O         65.2720  -65.7740   11.6610 O.2   184  GLY184     -0.2714
     74  N         66.8330  -65.5890   13.2600 N.am  185  GLU185     -0.1963
     75  CA        67.9250  -65.4490   12.2990 C.3   185  GLU185      0.1733
     76  C         68.5030  -66.8220   11.9710 C.2   185  GLU185      0.2616
     77  O         68.3370  -67.7650   12.7480 O.2   185  GLU185     -0.2715
     78  CB        69.0030  -64.5040   12.8300 C.3   185  GLU185      0.0429
     79  CG        69.5300  -64.8430   14.2100 C.3   185  GLU185      0.1163
     80  CD        70.1150  -63.6400   14.9270 C.2   185  GLU185      0.3649
     81  OE1       69.4680  -62.5770   14.9530 O.co2 185  GLU185     -0.2457
     82  OE2       71.2340  -63.7590   15.4640 O.co2 185  GLU185     -0.2457
     83  N         69.1630  -66.9460   10.8210 N.am  186  ARG186     -0.1977
     84  CA        69.6520  -68.2510   10.3730 C.3   186  ARG186      0.1597
     85  C         70.4550  -68.9280   11.4860 C.2   186  ARG186      0.2287
     86  O         71.1770  -68.2610   12.2170 O.2   186  ARG186     -0.2864
     87  CB        70.4780  -68.1140    9.0930 C.3   186  ARG186      0.0334
     88  CG        71.9440  -67.8200    9.3210 C.3   186  ARG186      0.0492
     89  CD        72.2350  -66.3220    9.3800 C.3   186  ARG186      0.2205
     90  NE        73.6230  -66.0750    9.0000 N.pl3 186  ARG186     -0.0865
     91  CZ        74.0260  -65.8210    7.7620 C.cat 186  ARG186      0.5346
     92  NH1       75.3190  -65.6350    7.5120 N.pl3 186  ARG186      0.1354
     93  NH2       73.1420  -65.7510    6.7790 N.pl3 186  ARG186      0.1354
     94  N         66.4710  -61.9070   16.4260 N.3   196  SER196     -0.1217
     95  CA        66.6630  -60.4940   16.1140 C.3   196  SER196      0.1889
     96  C         65.3540  -59.7230   16.1710 C.2   196  SER196      0.2288
     97  O         64.2690  -60.3040   16.1740 O.2   196  SER196     -0.2866
     98  CB        67.2990  -60.3120   14.7350 C.3   196  SER196      0.2089
     99  OG        68.7020  -60.4790   14.7910 O.3   196  SER196     -0.2183
    100  N         63.6330  -56.3800   14.0210 N.3   198  TYR198     -0.1241
    101  CA        63.7290  -55.4140   12.9350 C.3   198  TYR198      0.1605
    102  C         62.5550  -54.4530   13.0490 C.2   198  TYR198      0.2264
    103  O         61.3990  -54.8770   13.0290 O.2   198  TYR198     -0.2867
    104  CB        63.6910  -56.1250   11.5790 C.3   198  TYR198      0.0534
    105  CG        64.9140  -56.9690   11.2630 C.ar  198  TYR198     -0.0201
    106  CD1       64.9840  -58.3040   11.6450 C.ar  198  TYR198     -0.0009
    107  CD2       65.9900  -56.4300   10.5710 C.ar  198  TYR198     -0.0009
    108  CE1       66.1040  -59.0790   11.3490 C.ar  198  TYR198      0.0417
    109  CE2       67.1090  -57.1900   10.2720 C.ar  198  TYR198      0.0417
    110  CZ        67.1630  -58.5100   10.6580 C.ar  198  TYR198      0.1957
    111  OH        68.2850  -59.2570   10.3480 O.3   198  TYR198     -0.2866
    112  N         66.2690  -50.9000    3.3800 N.3   210  GLU210     -0.1231
    113  CA        66.7380  -51.6880    4.5130 C.3   210  GLU210      0.1699
    114  C         67.3930  -50.8230    5.5870 C.2   210  GLU210      0.2592
    115  O         67.2390  -51.0820    6.7780 O.2   210  GLU210     -0.2718
    116  CB        67.7000  -52.7770    4.0450 C.3   210  GLU210      0.0402
    117  CG        67.6950  -54.0390    4.8890 C.3   210  GLU210      0.1161
    118  CD        66.3020  -54.5770    5.1460 C.2   210  GLU210      0.3649
    119  OE1       66.1040  -55.2050    6.2060 O.co2 210  GLU210     -0.2457
    120  OE2       65.4040  -54.3750    4.2970 O.co2 210  GLU210     -0.2457
    121  N         68.1210  -49.7930    5.1610 N.am  211  ALA211     -0.1980
    122  CA        68.7930  -48.8860    6.0930 C.3   211  ALA211      0.1597
    123  C         67.8160  -48.0750    6.9600 C.2   211  ALA211      0.2287
    124  O         68.2020  -47.5290    7.9950 O.2   211  ALA211     -0.2864
    125  CB        69.7370  -47.9560    5.3450 C.3   211  ALA211      0.0319
    126  N         65.6270  -49.3280    8.7350 N.3   213  ARG213     -0.1245
    127  CA        65.3210  -50.1550    9.8950 C.3   213  ARG213      0.1563
    128  C         66.4200  -50.0780   10.9420 C.2   213  ARG213      0.2260
    129  O         67.5980  -49.9280   10.6190 O.2   213  ARG213     -0.2867
    130  CB        65.1290  -51.6150    9.4880 C.3   213  ARG213      0.0307
    131  CG        64.1030  -51.8460    8.4050 C.3   213  ARG213      0.0489
    132  CD        63.9700  -53.3360    8.1030 C.3   213  ARG213      0.2205
    133  NE        63.5380  -53.5660    6.7270 N.pl3 213  ARG213     -0.0865
    134  CZ        62.3520  -53.2020    6.2450 C.cat 213  ARG213      0.5346
    135  NH1       61.4740  -52.5950    7.0250 N.pl3 213  ARG213      0.1354
    136  NH2       62.0430  -53.4470    4.9810 N.pl3 213  ARG213      0.1354
    137  N         68.1790  -52.5200   13.7050 N.3   215  CYS215     -0.1221
    138  CA        68.3310  -53.9400   14.0030 C.3   215  CYS215      0.1808
    139  C         68.8680  -54.1380   15.4140 C.2   215  CYS215      0.2601
    140  O         69.7730  -53.4240   15.8510 O.2   215  CYS215     -0.2717
    141  CB        69.2650  -54.6090   12.9860 C.3   215  CYS215      0.0970
    142  SG        69.6390  -56.3560   13.3200 S.3   215  CYS215     -0.0800
    143  N         68.2920  -55.1040   16.1230 N.am  216  ILE216     -0.1965
    144  CA        68.8840  -55.6230   17.3500 C.3   216  ILE216      0.1727
    145  C         68.9620  -57.1450   17.3050 C.2   216  ILE216      0.2617
    146  O         67.9660  -57.8470   17.4670 O.2   216  ILE216     -0.2715
    147  CB        68.1370  -55.1440   18.6140 C.3   216  ILE216      0.0290
    148  CG1       68.9640  -55.4370   19.8640 C.3   216  ILE216      0.0022
    149  CG2       66.7800  -55.8050   18.7350 C.3   216  ILE216      0.0023
    150  CD1       68.9510  -54.3160   20.8690 C.3   216  ILE216      0.0001
    151  N         70.1690  -57.6420   17.0780 N.am  217  SER217     -0.1936
    152  CA        70.3780  -59.0350   16.7200 C.3   217  SER217      0.2055
    153  C         70.9350  -59.8050   17.9120 C.2   217  SER217      0.2643
    154  O         71.1990  -59.2190   18.9570 O.2   217  SER217     -0.2714
    155  CB        71.3480  -59.1140   15.5450 C.3   217  SER217      0.2130
    156  OG        72.6140  -58.6070   15.9180 O.3   217  SER217     -0.2179
    157  N         71.1150  -61.1110   17.7610 N.am  218  ASN218     -0.1971
    158  CA        71.7350  -61.9190   18.8110 C.3   218  ASN218      0.1688
    159  C         71.0010  -61.8440   20.1520 C.2   218  ASN218      0.2292
    160  O         71.6210  -61.7470   21.2150 O.2   218  ASN218     -0.2864
    161  CB        73.2070  -61.5350   18.9810 C.3   218  ASN218      0.1181
    162  CG        73.9890  -61.6670   17.6940 C.2   218  ASN218      0.2629
    163  OD1       74.1950  -60.6860   16.9740 O.2   218  ASN218     -0.2716
    164  ND2       74.4180  -62.8870   17.3860 N.am  218  ASN218     -0.0877
@<TRIPOS>BOND
     1    22    21    1
     2    21    23    1
     3    21    20    2
     4    19    20    1
     5    19    18    1
     6    61    60    1
     7    61    62    1
     8    17    18    1
     9    17    14    1
    10     1     2    1
    11    60    59    1
    12     4     3    2
    13    15    16    2
    14    15    14    1
    15    13    14    1
    16     3     2    1
    17     2     5    1
    18    45    44    1
    19    59    58    1
    20    58    55    1
    21    42    43    1
    22    42    41    1
    23   112   113    1
    24    44    43    2
    25    44    46    1
    26     5     6    1
    27    41    40    1
    28   116   113    1
    29   116   117    1
    30    57    56    2
    31   120   118   ar
    32     6     8   ar
    33     6     7   ar
    34   113   114    1
    35    56    55    1
    36    55    54    1
    37    40    37    1
    38     8    10   ar
    39   117   118    1
    40   136   134    1
    41     7     9   ar
    42   118   119   ar
    43   121   114   am
    44   121   122    1
    45   125   122    1
    46    10    11   ar
    47    54    49   am
    48   114   115    2
    49     9    11   ar
    50    11    12    1
    51    37    36    1
    52    37    38    1
    53   122   123    1
    54    36    34   am
    55   134   133    2
    56   134   135    1
    57    39    38    2
    58    38    47   am
    59    53    51    1
    60    49    50    2
    61    49    48    1
    62   133   132    1
    63    93    91    1
    64    47    48    1
    65    31    29    1
    66    34    33    1
    67    34    35    2
    68   123   124    2
    69    30    29    1
    70    33    32    1
    71    48    51    1
    72    92    91    1
    73    29    28    1
    74    51    52    1
    75    91    90    2
    76   132   131    1
    77   131   130    1
    78   126   127    1
    79    90    89    1
    80    87    88    1
    81    87    84    1
    82    28    25    1
    83    88    89    1
    84   130   127    1
    85    25    24    1
    86    25    26    1
    87   127   128    1
    88   109   107   ar
    89   109   110   ar
    90   111   110    1
    91    84    83    1
    92    84    85    1
    93   107   105   ar
    94   129   128    2
    95    27    26    2
    96   110   108   ar
    97    83    76   am
    98   105   104    1
    99   105   106   ar
   100   108   106   ar
   101    69    67    1
   102    85    86    2
   103   104   101    1
   104    73    72    2
   105    76    75    1
   106    76    77    2
   107    75    78    1
   108    75    74    1
   109    68    67    1
   110    67    64    1
   111    78    79    1
   112    72    74   am
   113    72    71    1
   114   101   102    1
   115   101   100    1
   116   141   142    1
   117   141   138    1
   118   103   102    2
   119   137   138    1
   120    64    65    1
   121    64    63    1
   122    70    71    1
   123    70    65   am
   124   138   139    1
   125    65    66    2
   126    79    80    1
   127    98    99    1
   128    98    95    1
   129    80    81   ar
   130    80    82   ar
   131   139   140    2
   132   139   143   am
   133   155   156    1
   134   155   152    1
   135    95    96    1
   136    95    94    1
   137   143   144    1
   138    96    97    2
   139   152   151    1
   140   152   153    1
   141   163   162    2
   142   151   145   am
   143   145   144    1
   144   145   146    2
   145   144   147    1
   146   164   162   am
   147   162   161    1
   148   157   153   am
   149   157   158    1
   150   153   154    2
   151   147   149    1
   152   147   148    1
   153   158   161    1
   154   158   159    1
   155   148   150    1
   156   159   160    2
