@<TRIPOS>MOLECULE
tmp/3abxA00.pdb
 202 195 0 0 0
SMALL
GASTEIGER

@<TRIPOS>ATOM
      1  N        -12.9030   12.1860    0.9480 N.3    14  SER14      -0.1217
      2  CA       -13.9060   11.1930    1.3550 C.3    14  SER14       0.1889
      3  C        -13.4390   10.4020    2.5780 C.2    14  SER14       0.2288
      4  O        -14.2580    9.9900    3.4220 O.2    14  SER14      -0.2866
      5  CB       -14.2770   10.2610    0.2000 C.3    14  SER14       0.2089
      6  OG       -13.1790    9.4740   -0.2220 O.3    14  SER14      -0.2183
      7  N        -14.9650   10.5880    6.8210 N.3    18  LYS18      -0.1245
      8  CA       -15.2910    9.4280    7.6530 C.3    18  LYS18       0.1561
      9  C        -14.8090    9.6260    9.0830 C.2    18  LYS18       0.2260
     10  O        -15.4450    9.1680   10.0260 O.2    18  LYS18      -0.2867
     11  CB       -14.6850    8.1400    7.0940 C.3    18  LYS18       0.0271
     12  CG       -15.1820    7.7250    5.7220 C.3    18  LYS18       0.0035
     13  CD       -14.2460    6.6220    5.1790 C.3    18  LYS18       0.0206
     14  CE       -14.4810    6.3530    3.7330 C.3    18  LYS18       0.1093
     15  NZ       -13.8570    5.0650    3.3820 N.3    18  LYS18      -0.1314
     16  N         -7.8910    3.9820   -3.2960 N.3    49  TRP49      -0.1241
     17  CA        -7.8920    2.6510   -3.8780 C.3    49  TRP49       0.1605
     18  C         -8.8930    2.5210   -5.0120 C.2    49  TRP49       0.2264
     19  O        -10.0590    2.8970   -4.8710 O.2    49  TRP49      -0.2867
     20  CB        -8.2150    1.6180   -2.8090 C.3    49  TRP49       0.0550
     21  CG        -7.1050    1.4180   -1.8300 C.ar   49  TRP49       0.0003
     22  CD1       -6.5990    2.3350   -0.9380 C.ar   49  TRP49       0.0946
     23  CD2       -6.3420    0.2240   -1.6520 C.ar   49  TRP49       0.0152
     24  NE1       -5.5800    1.7710   -0.2200 N.ar   49  TRP49      -0.2442
     25  CE2       -5.4000    0.4760   -0.6260 C.ar   49  TRP49       0.0810
     26  CE3       -6.3750   -1.0480   -2.2440 C.ar   49  TRP49       0.0012
     27  CZ2       -4.4940   -0.4880   -0.1930 C.ar   49  TRP49       0.0191
     28  CZ3       -5.4630   -2.0090   -1.8170 C.ar   49  TRP49       0.0001
     29  CH2       -4.5460   -1.7220   -0.7850 C.ar   49  TRP49       0.0015
     30  N        -10.2470   -0.4170   -6.5400 N.3    51  SER51      -0.1217
     31  CA       -10.2890   -1.8780   -6.3720 C.3    51  SER51       0.1889
     32  C        -11.3800   -2.5590   -7.1820 C.2    51  SER51       0.2288
     33  O        -11.5840   -3.7710   -7.0580 O.2    51  SER51      -0.2866
     34  CB       -10.4890   -2.2470   -4.8930 C.3    51  SER51       0.2089
     35  OG        -9.5670   -1.5570   -4.0630 O.3    51  SER51      -0.2183
     36  N        -15.2990    2.1820   -9.1110 N.3    55  THR55      -0.1218
     37  CA       -14.5150    3.2100   -8.4260 C.3    55  THR55       0.1862
     38  C        -13.7620    4.1250   -9.3960 C.2    55  THR55       0.2287
     39  O        -13.3370    5.2230   -9.0240 O.2    55  THR55      -0.2866
     40  CB       -13.6030    2.5500   -7.3830 C.3    55  THR55       0.1770
     41  OG1      -14.4440    1.8180   -6.4880 O.3    55  THR55      -0.2211
     42  CG2      -12.8100    3.5740   -6.5830 C.3    55  THR55       0.0375
     43  N         -5.8820   -2.1740   -8.1930 N.3    84  TYR84      -0.1241
     44  CA        -6.0400   -3.4580   -7.5200 C.3    84  TYR84       0.1605
     45  C         -7.2240   -4.2370   -8.1170 C.2    84  TYR84       0.2264
     46  O         -8.3010   -4.2870   -7.5400 O.2    84  TYR84      -0.2867
     47  CB        -6.1750   -3.2210   -6.0010 C.3    84  TYR84       0.0534
     48  CG        -6.3520   -4.4630   -5.1420 C.ar   84  TYR84      -0.0201
     49  CD1       -5.5740   -5.6000   -5.3330 C.ar   84  TYR84      -0.0009
     50  CD2       -7.3070   -4.4870   -4.1370 C.ar   84  TYR84      -0.0009
     51  CE1       -5.7290   -6.7150   -4.5370 C.ar   84  TYR84       0.0417
     52  CE2       -7.4790   -5.6030   -3.3320 C.ar   84  TYR84       0.0417
     53  CZ        -6.6920   -6.7110   -3.5450 C.ar   84  TYR84       0.1957
     54  OH        -6.8690   -7.8210   -2.7530 O.3    84  TYR84      -0.2866
     55  N         -7.7710  -12.4420   -9.1170 N.3    89  ARG89      -0.1231
     56  CA        -7.1410  -11.6880   -8.0340 C.3    89  ARG89       0.1694
     57  C         -7.0210  -12.5450   -6.7750 C.2    89  ARG89       0.2592
     58  O         -7.8560  -13.4180   -6.5090 O.2    89  ARG89      -0.2718
     59  CB        -7.9520  -10.4230   -7.7340 C.3    89  ARG89       0.0321
     60  CG        -7.0960   -9.2440   -7.2850 C.3    89  ARG89       0.0489
     61  CD        -7.9360   -8.0190   -7.0040 C.3    89  ARG89       0.2205
     62  NE        -8.7430   -8.1840   -5.7840 N.pl3  89  ARG89      -0.0865
     63  CZ        -9.6840   -7.3390   -5.3810 C.cat  89  ARG89       0.5346
     64  NH1       -9.9710   -6.2400   -6.0780 N.pl3  89  ARG89       0.1354
     65  NH2      -10.3620   -7.5820   -4.2570 N.pl3  89  ARG89       0.1354
     66  N         -5.9740  -12.2890   -6.0070 N.am   90  ASP90      -0.1974
     67  CA        -5.7920  -12.9330   -4.6980 C.3    90  ASP90       0.1709
     68  C         -5.8100  -14.4680   -4.8180 C.2    90  ASP90       0.2293
     69  O         -6.5440  -15.1460   -4.0810 O.2    90  ASP90      -0.2864
     70  CB        -6.8240  -12.4200   -3.6890 C.3    90  ASP90       0.1436
     71  CG        -6.9990  -10.9300   -3.7680 C.2    90  ASP90       0.3671
     72  OD1       -6.0360  -10.1950   -3.4490 O.co2  90  ASP90      -0.2456
     73  OD2       -8.0850  -10.4870   -4.1640 O.co2  90  ASP90      -0.2456
     74  N        -12.8900  -10.9150   -3.7750 N.3    97  ASP97      -0.1239
     75  CA       -13.9320  -10.0310   -4.2620 C.3    97  ASP97       0.1674
     76  C        -13.5670   -9.4180   -5.6180 C.2    97  ASP97       0.2266
     77  O        -14.3660   -8.6730   -6.1950 O.2    97  ASP97      -0.2867
     78  CB       -14.2210   -8.9520   -3.2160 C.3    97  ASP97       0.1410
     79  CG       -15.4970   -8.1950   -3.4930 C.2    97  ASP97       0.3668
     80  OD1      -16.5280   -8.8340   -3.7900 O.co2  97  ASP97      -0.2456
     81  OD2      -15.4610   -6.9510   -3.4070 O.co2  97  ASP97      -0.2456
     82  N         -1.4530   -4.9490   -5.1850 N.3   137  PRO137     -0.2102
     83  CA        -1.1640   -5.7140   -3.9670 C.3   137  PRO137      0.1504
     84  C         -1.6380   -7.1690   -4.0610 C.2   137  PRO137      0.2575
     85  O         -2.5550   -7.4970   -4.8140 O.2   137  PRO137     -0.2718
     86  CB        -1.9350   -4.9550   -2.8920 C.3   137  PRO137      0.0282
     87  CG        -2.0810   -3.5490   -3.4480 C.3   137  PRO137      0.0208
     88  CD        -2.2900   -3.7680   -4.9180 C.3   137  PRO137      0.0893
     89  N         -1.0060   -8.0380   -3.2860 N.am  138  ASP138     -0.1974
     90  CA        -1.3750   -9.4500   -3.1750 C.3   138  ASP138      0.1708
     91  C         -1.2720  -10.1630   -4.5200 C.2   138  ASP138      0.2293
     92  O         -2.0700  -11.0400   -4.8080 O.2   138  ASP138     -0.2864
     93  CB        -2.7820   -9.6420   -2.5730 C.3   138  ASP138      0.1436
     94  CG        -3.0420  -11.0760   -2.1790 C.2   138  ASP138      0.3671
     95  OD1       -2.0690  -11.8050   -1.8880 O.co2 138  ASP138     -0.2456
     96  OD2       -4.2180  -11.4900   -2.1960 O.co2 138  ASP138     -0.2456
     97  N          3.7540   -3.4540   -6.2280 N.3   180  ASP180     -0.1239
     98  CA         3.6400   -3.9920   -4.8710 C.3   180  ASP180      0.1674
     99  C          4.6170   -5.1440   -4.6740 C.2   180  ASP180      0.2266
    100  O          4.7570   -6.0060   -5.5490 O.2   180  ASP180     -0.2867
    101  CB         2.2240   -4.4720   -4.5510 C.3   180  ASP180      0.1410
    102  CG         2.1200   -4.9190   -3.1170 C.2   180  ASP180      0.3668
    103  OD1        1.8500   -4.0430   -2.2910 O.co2 180  ASP180     -0.2456
    104  OD2        2.3420   -6.1260   -2.8400 O.co2 180  ASP180     -0.2456
    105  N          6.5930  -12.0090    4.1840 N.3   186  TRP186     -0.1241
    106  CA         6.2130  -12.8300    3.0400 C.3   186  TRP186      0.1605
    107  C          7.4440  -13.1000    2.1790 C.2   186  TRP186      0.2264
    108  O          7.9100  -14.2360    2.0690 O.2   186  TRP186     -0.2867
    109  CB         5.0980  -12.1360    2.2430 C.3   186  TRP186      0.0550
    110  CG         4.4710  -12.9680    1.1410 C.ar  186  TRP186      0.0003
    111  CD1        4.9610  -14.1280    0.6130 C.ar  186  TRP186      0.0946
    112  CD2        3.2600  -12.6700    0.4210 C.ar  186  TRP186      0.0152
    113  NE1        4.1290  -14.5750   -0.4000 N.ar  186  TRP186     -0.2442
    114  CE2        3.0790  -13.7090   -0.5240 C.ar  186  TRP186      0.0810
    115  CE3        2.3020  -11.6430    0.4970 C.ar  186  TRP186      0.0012
    116  CZ2        1.9810  -13.7450   -1.4100 C.ar  186  TRP186      0.0191
    117  CZ3        1.2070  -11.6830   -0.3840 C.ar  186  TRP186      0.0001
    118  CH2        1.0630  -12.7330   -1.3150 C.ar  186  TRP186      0.0015
    119  N          2.0830   -2.8300    2.3200 N.3   223  VAL223     -0.1231
    120  CA         0.7520   -2.3270    2.0000 C.3   223  VAL223      0.1692
    121  C         -0.2910   -3.1610    2.7450 C.2   223  VAL223      0.2592
    122  O         -0.3010   -4.3910    2.6390 O.2   223  VAL223     -0.2718
    123  CB         0.4640   -2.3630    0.4640 C.3   223  VAL223      0.0266
    124  CG1       -0.9880   -1.9870    0.1740 C.3   223  VAL223      0.0020
    125  CG2        1.4340   -1.4370   -0.2870 C.3   223  VAL223      0.0020
    126  N         -1.1270   -2.4720    3.5230 N.am  224  SER224     -0.1952
    127  CA        -2.1830   -3.1140    4.3300 C.3   224  SER224      0.1924
    128  C         -1.6810   -3.9610    5.4840 C.2   224  SER224      0.2314
    129  O         -2.4830   -4.5990    6.1610 O.2   224  SER224     -0.2863
    130  CB        -3.1400   -3.9490    3.4790 C.3   224  SER224      0.2116
    131  OG        -3.6750   -3.1610    2.4450 O.3   224  SER224     -0.2180
    132  N         -3.4140  -10.9550    9.7520 N.3   285  TRP285     -0.1241
    133  CA        -3.5450   -9.7190    8.9630 C.3   285  TRP285      0.1605
    134  C         -4.8760   -8.9780    9.1540 C.2   285  TRP285      0.2264
    135  O         -4.9920   -7.7890    8.8170 O.2   285  TRP285     -0.2867
    136  CB        -3.3570  -10.0220    7.4620 C.3   285  TRP285      0.0550
    137  CG        -4.3370  -11.0430    6.9390 C.ar  285  TRP285      0.0003
    138  CD1       -4.1480  -12.3950    6.8720 C.ar  285  TRP285      0.0946
    139  CD2       -5.6550  -10.7940    6.4310 C.ar  285  TRP285      0.0152
    140  NE1       -5.2630  -13.0030    6.3540 N.ar  285  TRP285     -0.2442
    141  CE2       -6.2070  -12.0490    6.0770 C.ar  285  TRP285      0.0810
    142  CE3       -6.4270   -9.6380    6.2400 C.ar  285  TRP285      0.0012
    143  CZ2       -7.4960  -12.1830    5.5370 C.ar  285  TRP285      0.0191
    144  CZ3       -7.7270   -9.7780    5.7010 C.ar  285  TRP285      0.0001
    145  CH2       -8.2380  -11.0440    5.3710 C.ar  285  TRP285      0.0015
    146  N         -2.9330    1.6490    2.9490 N.3   316  LYS316     -0.1231
    147  CA        -4.2170    1.1800    3.4580 C.3   316  LYS316      0.1678
    148  C         -4.7760    2.2510    4.4210 C.2   316  LYS316      0.2434
    149  O         -4.0910    2.6180    5.3820 O.2   316  LYS316     -0.2733
    150  CB        -4.0130   -0.1570    4.1830 C.3   316  LYS316      0.0284
    151  CG        -5.1760   -0.5970    5.0830 C.3   316  LYS316      0.0035
    152  CD        -6.3590   -1.1330    4.2830 C.3   316  LYS316      0.0206
    153  CE        -7.5070   -1.4500    5.2110 C.3   316  LYS316      0.1093
    154  NZ        -8.6580   -2.1070    4.5040 N.3   316  LYS316     -0.1314
    155  N         -5.9930    2.7750    4.1780 N.am  317  PRO317     -0.2729
    156  CA        -6.5100    3.8050    5.0670 C.3   317  PRO317      0.1401
    157  C         -7.0440    3.2040    6.3620 C.2   317  PRO317      0.2269
    158  O         -8.0450    2.4710    6.3510 O.2   317  PRO317     -0.2865
    159  CB        -7.6240    4.4640    4.2350 C.3   317  PRO317      0.0296
    160  CG        -7.3900    3.9800    2.8020 C.3   317  PRO317      0.0237
    161  CD        -6.8940    2.5750    3.0280 C.3   317  PRO317      0.0939
    162  N        -10.7160    1.5800    7.5860 N.3   320  GLU320     -0.1231
    163  CA       -11.4370    0.7850    6.5970 C.3   320  GLU320      0.1699
    164  C        -11.1580   -0.6740    6.9280 C.2   320  GLU320      0.2593
    165  O        -10.0040   -1.0990    6.9340 O.2   320  GLU320     -0.2718
    166  CB       -11.0120    1.1600    5.1700 C.3   320  GLU320      0.0402
    167  CG       -11.3840    2.6070    4.8350 C.3   320  GLU320      0.1161
    168  CD       -11.0670    3.0520    3.4120 C.2   320  GLU320      0.3649
    169  OE1      -10.5080    2.2510    2.6280 O.co2 320  GLU320     -0.2457
    170  OE2      -11.3550    4.2400    3.1180 O.co2 320  GLU320     -0.2457
    171  N        -12.2290   -1.4210    7.2230 N.am  321  SER321     -0.1938
    172  CA       -12.0910   -2.8020    7.7080 C.3   321  SER321      0.2055
    173  C        -11.3550   -3.6990    6.7210 C.2   321  SER321      0.2643
    174  O        -11.4610   -3.5270    5.4980 O.2   321  SER321     -0.2714
    175  CB       -13.4660   -3.3880    7.9720 C.3   321  SER321      0.2130
    176  OG       -13.3540   -4.7130    8.4710 O.3   321  SER321     -0.2179
    177  N        -10.6320   -4.6860    7.2430 N.am  322  ASP322     -0.1971
    178  CA        -9.9980   -5.7060    6.4190 C.3   322  ASP322      0.1709
    179  C        -10.9570   -6.8410    6.0340 C.2   322  ASP322      0.2293
    180  O        -10.6420   -7.6470    5.1440 O.2   322  ASP322     -0.2864
    181  CB        -8.7910   -6.3060    7.1500 C.3   322  ASP322      0.1436
    182  CG        -7.7030   -5.2940    7.4260 C.2   322  ASP322      0.3671
    183  OD1       -7.3820   -4.4870    6.5360 O.co2 322  ASP322     -0.2456
    184  OD2       -7.1360   -5.3400    8.5410 O.co2 322  ASP322     -0.2456
    185  N        -15.2570   -5.8090    4.6270 N.3   348  ALA348     -0.1231
    186  CA       -14.0480   -5.2000    4.0710 C.3   348  ALA348      0.1694
    187  C        -14.3550   -3.8460    3.4410 C.2   348  ALA348      0.2593
    188  O        -15.2930   -3.7080    2.6450 O.2   348  ALA348     -0.2718
    189  CB       -13.3840   -6.1120    3.0650 C.3   348  ALA348      0.0304
    190  N        -13.5760   -2.8440    3.8400 N.am  349  GLY349     -0.1942
    191  CA       -13.7360   -1.4930    3.3110 C.3   349  GLY349      0.2014
    192  C        -14.7070   -0.6150    4.0810 C.2   349  GLY349      0.2638
    193  O        -14.6520    0.6150    3.9600 O.2   349  GLY349     -0.2714
    194  N        -15.6190   -1.2130    4.8460 N.am  350  GLU350     -0.1977
    195  CA       -16.5770   -0.4370    5.6220 C.3   350  GLU350      0.1602
    196  C        -15.8980    0.1930    6.8420 C.2   350  GLU350      0.2287
    197  O        -14.8580   -0.2920    7.3090 O.2   350  GLU350     -0.2864
    198  CB       -17.7750   -1.3010    6.0390 C.3   350  GLU350      0.0415
    199  CG       -18.5610   -1.9110    4.8670 C.3   350  GLU350      0.1163
    200  CD       -19.2870   -0.8770    4.0150 C.2   350  GLU350      0.3649
    201  OE1      -19.9350    0.0330    4.5780 O.co2 350  GLU350     -0.2457
    202  OE2      -19.2220   -0.9850    2.7750 O.co2 350  GLU350     -0.2457
@<TRIPOS>BOND
     1    38    39    2
     2    38    37    1
     3    55    56    1
     4    36    37    1
     5    37    40    1
     6    43    44    1
     7    45    46    2
     8    45    44    1
     9    56    59    1
    10    56    57    1
    11    59    60    1
    12    44    47    1
    13    40    42    1
    14    40    41    1
    15    60    61    1
    16    32    33    2
    17    32    31    1
    18    61    62    1
    19    57    58    2
    20    57    66   am
    21    30    31    1
    22    31    34    1
    23    97    98    1
    24    77    76    2
    25    64    63    1
    26    66    67    1
    27    47    48    1
    28    62    63    2
    29    76    75    1
    30   100    99    2
    31    63    65    1
    32    49    48   ar
    33    49    51   ar
    34    82    88    1
    35    82    83    1
    36    48    50   ar
    37    18    19    2
    38    18    17    1
    39    88    87    1
    40    34    35    1
    41    98    99    1
    42    98   101    1
    43    68    67    1
    44    68    69    2
    45    85    84    2
    46    92    91    2
    47    67    70    1
    48   101   102    1
    49    51    53   ar
    50    91    90    1
    51    75    74    1
    52    75    78    1
    53    73    71   ar
    54    50    52   ar
    55    84    83    1
    56    84    89   am
    57    83    86    1
    58    17    16    1
    59    17    20    1
    60    80    79   ar
    61    71    70    1
    62    71    72   ar
    63    53    52   ar
    64    53    54    1
    65    79    81   ar
    66    79    78    1
    67    87    86    1
    68    89    90    1
    69    90    93    1
    70   102   104   ar
    71   102   103   ar
    72    20    21    1
    73    93    94    1
    74    26    28   ar
    75    26    23   ar
    76    96    94   ar
    77    94    95   ar
    78    21    23   ar
    79    21    22   ar
    80    28    29   ar
    81    23    25   ar
    82   116   118   ar
    83   116   114   ar
    84   118   117   ar
    85    22    24   ar
    86    29    27   ar
    87    25    24   ar
    88    25    27   ar
    89   114   113   ar
    90   114   112   ar
    91   113   111   ar
    92   117   115   ar
    93   125   123    1
    94     6     5    1
    95   124   123    1
    96     5     2    1
    97   112   115   ar
    98   112   110   ar
    99   123   120    1
   100   111   110   ar
   101     1     2    1
   102   110   109    1
   103     2     3    1
   104   120   119    1
   105   120   121    1
   106   108   107    2
   107   107   106    1
   108   109   106    1
   109   131   130    1
   110     3     4    2
   111   169   168   ar
   112   122   121    2
   113   188   187    2
   114   121   126   am
   115   202   200   ar
   116   160   161    1
   117   160   159    1
   118   146   147    1
   119   161   155    1
   120   106   105    1
   121   189   186    1
   122   170   168   ar
   123   191   190    1
   124   191   192    1
   125    15    14    1
   126   168   167    1
   127   187   190   am
   128   187   186    1
   129   147   150    1
   130   147   148    1
   131   130   127    1
   132   126   127    1
   133    14    13    1
   134   193   192    2
   135   200   201   ar
   136   200   199    1
   137   186   185    1
   138   192   194   am
   139   155   148   am
   140   155   156    1
   141   150   151    1
   142   159   156    1
   143   152   151    1
   144   152   153    1
   145   127   128    1
   146   148   149    2
   147   154   153    1
   148   167   166    1
   149   194   195    1
   150   199   198    1
   151   156   157    1
   152   180   179    2
   153   166   163    1
   154    13    12    1
   155   145   143   ar
   156   145   144   ar
   157   128   129    2
   158   174   173    2
   159   143   141   ar
   160   195   198    1
   161   195   196    1
   162   144   142   ar
   163    12    11    1
   164   179   178    1
   165   141   140   ar
   166   141   139   ar
   167   142   139   ar
   168   158   157    2
   169   140   138   ar
   170   178   181    1
   171   178   177    1
   172   139   137   ar
   173   183   182   ar
   174   163   164    1
   175   163   162    1
   176   173   177   am
   177   173   172    1
   178     7     8    1
   179   196   197    2
   180   138   137   ar
   181   164   165    2
   182   164   171   am
   183   137   136    1
   184    11     8    1
   185   181   182    1
   186   171   172    1
   187   182   184   ar
   188   136   133    1
   189     8     9    1
   190   172   175    1
   191   175   176    1
   192   135   134    2
   193   133   134    1
   194   133   132    1
   195     9    10    2
