@<TRIPOS>MOLECULE
tmp/3abxA01.pdb
 140 139 0 0 0
SMALL
GASTEIGER

@<TRIPOS>ATOM
      1  N         -4.2590  -17.1310   -3.9270 N.3    92  ALA92      -0.1245
      2  CA        -4.0480  -18.0690   -2.8060 C.3    92  ALA92       0.1562
      3  C         -5.1070  -17.9560   -1.7110 C.2    92  ALA92       0.2260
      4  O         -5.1330  -18.7870   -0.7880 O.2    92  ALA92      -0.2867
      5  CB        -2.6570  -17.9010   -2.2080 C.3    92  ALA92       0.0290
      6  N         -1.0060   -8.0380   -3.2860 N.3   138  ASP138     -0.1239
      7  CA        -1.3750   -9.4500   -3.1750 C.3   138  ASP138      0.1674
      8  C         -1.2720  -10.1630   -4.5200 C.2   138  ASP138      0.2266
      9  O         -2.0700  -11.0400   -4.8080 O.2   138  ASP138     -0.2867
     10  CB        -2.7820   -9.6420   -2.5730 C.3   138  ASP138      0.1410
     11  CG        -3.0420  -11.0760   -2.1790 C.2   138  ASP138      0.3668
     12  OD1       -2.0690  -11.8050   -1.8880 O.co2 138  ASP138     -0.2456
     13  OD2       -4.2180  -11.4900   -2.1960 O.co2 138  ASP138     -0.2456
     14  N          2.6400  -14.3240   -4.8710 N.3   142  ASN142     -0.1240
     15  CA         2.0210  -15.6390   -4.9990 C.3   142  ASN142      0.1653
     16  C          2.7560  -16.5410   -5.9640 C.2   142  ASN142      0.2266
     17  O          2.7140  -17.7680   -5.8340 O.2   142  ASN142     -0.2867
     18  CB         0.5620  -15.5250   -5.4450 C.3   142  ASN142      0.1155
     19  CG        -0.3020  -14.8620   -4.4160 C.2   142  ASN142      0.2627
     20  OD1       -0.8320  -13.7570   -4.6280 O.2   142  ASN142     -0.2716
     21  ND2       -0.4400  -15.5070   -3.2690 N.am  142  ASN142     -0.0877
     22  N          5.7020  -17.9950   -3.6920 N.3   145  THR145     -0.1203
     23  CA         5.4670  -18.9370   -2.5850 C.3   145  THR145      0.1994
     24  C          4.2330  -19.8290   -2.7370 C.2   145  THR145      0.2617
     25  O          4.0710  -20.7810   -1.9770 O.2   145  THR145     -0.2717
     26  CB         5.3190  -18.1930   -1.2340 C.3   145  THR145      0.1784
     27  OG1        4.1730  -17.3400   -1.2850 O.3   145  THR145     -0.2211
     28  CG2        6.5510  -17.3580   -0.9160 C.3   145  THR145      0.0376
     29  N          3.3590  -19.5130   -3.6880 N.am  146  ASN146     -0.1974
     30  CA         2.0500  -20.1780   -3.7520 C.3   146  ASN146      0.1688
     31  C          1.7870  -20.9080   -5.0650 C.2   146  ASN146      0.2292
     32  O          0.6350  -21.1410   -5.4350 O.2   146  ASN146     -0.2864
     33  CB         0.9370  -19.1690   -3.4590 C.3   146  ASN146      0.1181
     34  CG         0.8520  -18.7940   -1.9970 C.2   146  ASN146      0.2629
     35  OD1        0.5950  -17.6340   -1.6470 O.2   146  ASN146     -0.2716
     36  ND2        1.0380  -19.7790   -1.1230 N.am  146  ASN146     -0.0877
     37  N          5.5300   -7.8190    1.9170 N.3   183  HIS183     -0.1241
     38  CA         6.1000   -7.3160    3.1630 C.3   183  HIS183      0.1621
     39  C          7.1710   -8.2940    3.6090 C.2   183  HIS183      0.2264
     40  O          7.3050   -9.3900    3.0570 O.2   183  HIS183     -0.2867
     41  CB         5.0040   -7.1410    4.2160 C.3   183  HIS183      0.0745
     42  CG         4.4720   -8.4270    4.7720 C.ar  183  HIS183      0.0817
     43  ND1        3.4390   -9.1330    4.1910 N.ar  183  HIS183     -0.2268
     44  CD2        4.8040   -9.1070    5.8940 C.ar  183  HIS183      0.1154
     45  CE1        3.1830  -10.2050    4.9190 C.ar  183  HIS183      0.1986
     46  NE2        3.9910  -10.2070    5.9610 N.ar  183  HIS183     -0.2212
     47  N          7.6080  -10.2960    6.0200 N.3   185  GLY185     -0.1210
     48  CA         7.2010  -11.6250    6.4930 C.3   185  GLY185      0.1956
     49  C          6.7180  -12.5420    5.3960 C.2   185  GLY185      0.2611
     50  O          6.4800  -13.7260    5.6380 O.2   185  GLY185     -0.2717
     51  N          6.5930  -12.0090    4.1840 N.am  186  TRP186     -0.1976
     52  CA         6.2130  -12.8300    3.0400 C.3   186  TRP186      0.1640
     53  C          7.4440  -13.1000    2.1790 C.2   186  TRP186      0.2290
     54  O          7.9100  -14.2360    2.0690 O.2   186  TRP186     -0.2864
     55  CB         5.0980  -12.1360    2.2430 C.3   186  TRP186      0.0576
     56  CG         4.4710  -12.9680    1.1410 C.ar  186  TRP186      0.0006
     57  CD1        4.9610  -14.1280    0.6130 C.ar  186  TRP186      0.0946
     58  CD2        3.2600  -12.6700    0.4210 C.ar  186  TRP186      0.0152
     59  NE1        4.1290  -14.5750   -0.4000 N.ar  186  TRP186     -0.2442
     60  CE2        3.0790  -13.7090   -0.5240 C.ar  186  TRP186      0.0810
     61  CE3        2.3020  -11.6430    0.4970 C.ar  186  TRP186      0.0012
     62  CZ2        1.9810  -13.7450   -1.4100 C.ar  186  TRP186      0.0191
     63  CZ3        1.2070  -11.6830   -0.3840 C.ar  186  TRP186      0.0001
     64  CH2        1.0630  -12.7330   -1.3150 C.ar  186  TRP186      0.0015
     65  N         12.0330  -13.7620    3.5840 N.3   189  TRP189     -0.1241
     66  CA        12.7050  -15.0230    3.8940 C.3   189  TRP189      0.1605
     67  C         13.8020  -15.2820    2.8790 C.2   189  TRP189      0.2264
     68  O         13.6420  -14.9700    1.7030 O.2   189  TRP189     -0.2867
     69  CB        11.6900  -16.1740    3.9090 C.3   189  TRP189      0.0550
     70  CG        10.6350  -15.9910    4.9480 C.ar  189  TRP189      0.0003
     71  CD1        9.3840  -15.4530    4.7750 C.ar  189  TRP189      0.0946
     72  CD2       10.7340  -16.3170    6.3450 C.ar  189  TRP189      0.0152
     73  NE1        8.7030  -15.4380    5.9640 N.ar  189  TRP189     -0.2442
     74  CE2        9.5040  -15.9620    6.9460 C.ar  189  TRP189      0.0810
     75  CE3       11.7380  -16.8890    7.1410 C.ar  189  TRP189      0.0012
     76  CZ2        9.2560  -16.1480    8.3080 C.ar  189  TRP189      0.0191
     77  CZ3       11.4800  -17.0840    8.4980 C.ar  189  TRP189      0.0001
     78  CH2       10.2540  -16.7080    9.0620 C.ar  189  TRP189      0.0015
     79  N         13.2040  -16.5420   -0.6700 N.3   192  ASN192     -0.1240
     80  CA        12.2210  -15.8130   -1.4640 C.3   192  ASN192      0.1653
     81  C         12.7810  -14.5620   -2.1290 C.2   192  ASN192      0.2266
     82  O         12.1620  -14.0120   -3.0440 O.2   192  ASN192     -0.2867
     83  CB        11.0070  -15.4510   -0.6010 C.3   192  ASN192      0.1155
     84  CG        10.2130  -16.6720   -0.1520 C.2   192  ASN192      0.2627
     85  OD1       10.3980  -17.7800   -0.6730 O.2   192  ASN192     -0.2716
     86  ND2        9.3620  -16.4850    0.8520 N.am  192  ASN192     -0.0877
     87  N         -0.3750   -3.9560    5.7350 N.3   225  ASN225     -0.1240
     88  CA         0.1330   -4.7680    6.8400 C.3   225  ASN225      0.1653
     89  C          0.5070   -3.8600    8.0160 C.2   225  ASN225      0.2266
     90  O          0.1260   -2.6870    8.0330 O.2   225  ASN225     -0.2867
     91  CB         1.2700   -5.6800    6.3590 C.3   225  ASN225      0.1155
     92  CG         1.3400   -6.9870    7.1270 C.2   225  ASN225      0.2627
     93  OD1        1.6430   -6.9960    8.3180 O.2   225  ASN225     -0.2716
     94  ND2        1.0290   -8.0940    6.4630 N.am  225  ASN225     -0.0877
     95  N         14.8030  -16.1120   12.0130 N.3   240  TRP240     -0.1241
     96  CA        15.3210  -16.6420   10.7550 C.3   240  TRP240      0.1605
     97  C         14.8840  -15.8550    9.5330 C.2   240  TRP240      0.2264
     98  O         15.0920  -16.2930    8.4080 O.2   240  TRP240     -0.2867
     99  CB        15.0110  -18.1380   10.5860 C.3   240  TRP240      0.0550
    100  CG        15.3920  -18.9260   11.7790 C.ar  240  TRP240      0.0003
    101  CD1       14.5710  -19.6830   12.5520 C.ar  240  TRP240      0.0946
    102  CD2       16.6950  -19.0100   12.3640 C.ar  240  TRP240      0.0152
    103  NE1       15.2850  -20.2570   13.5790 N.ar  240  TRP240     -0.2442
    104  CE2       16.5910  -19.8490   13.4900 C.ar  240  TRP240      0.0810
    105  CE3       17.9450  -18.4560   12.0440 C.ar  240  TRP240      0.0012
    106  CZ2       17.6880  -20.1490   14.3010 C.ar  240  TRP240      0.0191
    107  CZ3       19.0360  -18.7610   12.8460 C.ar  240  TRP240      0.0001
    108  CH2       18.8960  -19.5990   13.9610 C.ar  240  TRP240      0.0015
    109  N          3.0440  -14.1190   12.3010 N.3   282  TRP282     -0.1227
    110  CA         3.2930  -13.0780   11.2980 C.3   282  TRP282      0.1737
    111  C          2.1880  -13.0090   10.2560 C.2   282  TRP282      0.2596
    112  O          1.9080  -11.9350    9.7160 O.2   282  TRP282     -0.2718
    113  CB         4.6260  -13.3200   10.5950 C.3   282  TRP282      0.0564
    114  CG         5.3620  -12.0690   10.2140 C.ar  282  TRP282      0.0003
    115  CD1        4.8490  -10.8090   10.0790 C.ar  282  TRP282      0.0946
    116  CD2        6.7630  -11.9730    9.9480 C.ar  282  TRP282      0.0152
    117  NE1        5.8610   -9.9310    9.7350 N.ar  282  TRP282     -0.2442
    118  CE2        7.0400  -10.6200    9.6450 C.ar  282  TRP282      0.0810
    119  CE3        7.8130  -12.9090    9.9210 C.ar  282  TRP282      0.0012
    120  CZ2        8.3190  -10.1740    9.3170 C.ar  282  TRP282      0.0191
    121  CZ3        9.0820  -12.4690    9.5970 C.ar  282  TRP282      0.0001
    122  CH2        9.3260  -11.1080    9.2930 C.ar  282  TRP282      0.0015
    123  N          1.5690  -14.1530    9.9770 N.am  283  GLY283     -0.1957
    124  CA         0.5310  -14.2500    8.9610 C.3   283  GLY283      0.1869
    125  C         -0.8330  -13.7230    9.3550 C.2   283  GLY283      0.2309
    126  O         -1.7330  -13.6880    8.5290 O.2   283  GLY283     -0.2863
    127  N         -3.4140  -10.9550    9.7520 N.3   285  TRP285     -0.1241
    128  CA        -3.5450   -9.7190    8.9630 C.3   285  TRP285      0.1605
    129  C         -4.8760   -8.9780    9.1540 C.2   285  TRP285      0.2264
    130  O         -4.9920   -7.7890    8.8170 O.2   285  TRP285     -0.2867
    131  CB        -3.3570  -10.0220    7.4620 C.3   285  TRP285      0.0550
    132  CG        -4.3370  -11.0430    6.9390 C.ar  285  TRP285      0.0003
    133  CD1       -4.1480  -12.3950    6.8720 C.ar  285  TRP285      0.0946
    134  CD2       -5.6550  -10.7940    6.4310 C.ar  285  TRP285      0.0152
    135  NE1       -5.2630  -13.0030    6.3540 N.ar  285  TRP285     -0.2442
    136  CE2       -6.2070  -12.0490    6.0770 C.ar  285  TRP285      0.0810
    137  CE3       -6.4270   -9.6380    6.2400 C.ar  285  TRP285      0.0012
    138  CZ2       -7.4960  -12.1830    5.5370 C.ar  285  TRP285      0.0191
    139  CZ3       -7.7270   -9.7780    5.7010 C.ar  285  TRP285      0.0001
    140  CH2       -8.2380  -11.0440    5.3710 C.ar  285  TRP285      0.0015
@<TRIPOS>BOND
     1    16    17    2
     2    16    15    1
     3    18    15    1
     4    18    19    1
     5    32    31    2
     6    31    30    1
     7    15    14    1
     8     9     8    2
     9    20    19    2
    10     8     7    1
    11    19    21   am
    12     1     2    1
    13    30    29    1
    14    30    33    1
    15    22    23    1
    16    29    24   am
    17    33    34    1
    18     6     7    1
    19     7    10    1
    20    82    81    2
    21     2     5    1
    22     2     3    1
    23    24    23    1
    24    24    25    2
    25    23    26    1
    26    10    11    1
    27    13    11   ar
    28    11    12   ar
    29    81    80    1
    30    34    35    2
    31    34    36   am
    32     3     4    2
    33    80    79    1
    34    80    83    1
    35    62    64   ar
    36    62    60   ar
    37    64    63   ar
    38    27    26    1
    39    26    28    1
    40    85    84    2
    41    83    84    1
    42    60    59   ar
    43    60    58   ar
    44    59    57   ar
    45    63    61   ar
    46    84    86   am
    47    58    61   ar
    48    58    56   ar
    49    57    56   ar
    50    56    55    1
    51    68    67    2
    52    37    38    1
    53    54    53    2
    54    53    52    1
    55    55    52    1
    56    67    66    1
    57    52    51    1
    58    40    39    2
    59    38    39    1
    60    38    41    1
    61    65    66    1
    62    66    69    1
    63    69    70    1
    64    51    49   am
    65    43    42   ar
    66    43    45   ar
    67    41    42    1
    68    42    44   ar
    69    71    70   ar
    70    71    73   ar
    71    45    46   ar
    72    70    72   ar
    73   140   138   ar
    74   140   139   ar
    75    49    50    2
    76    49    48    1
    77   138   136   ar
    78   139   137   ar
    79    87    88    1
    80    44    46   ar
    81    73    74   ar
    82    47    48    1
    83   136   135   ar
    84   136   134   ar
    85   137   134   ar
    86    72    74   ar
    87    72    75   ar
    88   135   133   ar
    89    91    88    1
    90    91    92    1
    91   134   132   ar
    92    94    92   am
    93    88    89    1
    94   133   132   ar
    95   132   131    1
    96    74    76   ar
    97    92    93    2
    98    75    77   ar
    99   131   128    1
   100    89    90    2
   101    76    78   ar
   102    98    97    2
   103    77    78   ar
   104   126   125    2
   105   130   129    2
   106   124   125    1
   107   124   123    1
   108   128   129    1
   109   128   127    1
   110   122   120   ar
   111   122   121   ar
   112   120   118   ar
   113    97    96    1
   114   121   119   ar
   115   118   117   ar
   116   118   116   ar
   117   112   111    2
   118   117   115   ar
   119   119   116   ar
   120   116   114   ar
   121   123   111   am
   122   115   114   ar
   123   114   113    1
   124   111   110    1
   125    99    96    1
   126    99   100    1
   127   113   110    1
   128    96    95    1
   129   110   109    1
   130   100   102   ar
   131   100   101   ar
   132   105   102   ar
   133   105   107   ar
   134   102   104   ar
   135   101   103   ar
   136   107   108   ar
   137   104   103   ar
   138   104   106   ar
   139   108   106   ar
