@<TRIPOS>MOLECULE
tmp/3ac0A00.pdb
 172 166 0 0 0
SMALL
GASTEIGER

@<TRIPOS>ATOM
      1  N         22.6400   -4.9030    7.2100 N.3    27  TRP27      -0.1241
      2  CA        21.8990   -4.7340    8.4540 C.3    27  TRP27       0.1605
      3  C         20.5250   -5.4040    8.5330 C.2    27  TRP27       0.2264
      4  O         19.7550   -5.1640    9.5030 O.2    27  TRP27      -0.2867
      5  CB        21.7210   -3.2310    8.7480 C.3    27  TRP27       0.0550
      6  CG        22.9750   -2.3790    8.5440 C.ar   27  TRP27       0.0003
      7  CD1       23.1910   -1.4260    7.5670 C.ar   27  TRP27       0.0946
      8  CD2       24.1590   -2.3990    9.3470 C.ar   27  TRP27       0.0152
      9  NE1       24.4420   -0.8640    7.7160 N.ar   27  TRP27      -0.2442
     10  CE2       25.0570   -1.4440    8.8030 C.ar   27  TRP27       0.0810
     11  CE3       24.5690   -3.1630   10.4450 C.ar   27  TRP27       0.0012
     12  CZ2       26.3470   -1.2210    9.3460 C.ar   27  TRP27       0.0191
     13  CZ3       25.8420   -2.9180   11.0000 C.ar   27  TRP27       0.0001
     14  CH2       26.7040   -1.9490   10.4490 C.ar   27  TRP27       0.0015
     15  N         24.6540   -1.2990   14.9870 N.3    44  ASP44      -0.1239
     16  CA        25.6890   -0.9540   15.9310 C.3    44  ASP44       0.1674
     17  C         25.1200    0.1290   16.8420 C.2    44  ASP44       0.2266
     18  O         24.2940    0.9220   16.3790 O.2    44  ASP44      -0.2867
     19  CB        26.9460   -0.5010   15.1920 C.3    44  ASP44       0.1410
     20  CG        27.7960   -1.6840   14.7130 C.2    44  ASP44       0.3668
     21  OD1       27.8230   -2.7670   15.3790 O.co2  44  ASP44      -0.2456
     22  OD2       28.4290   -1.5420   13.6600 O.co2  44  ASP44      -0.2456
     23  N         24.1980    3.7040   15.6590 N.3    50  ARG50      -0.1245
     24  CA        24.6580    4.4290   14.4880 C.3    50  ARG50       0.1563
     25  C         23.5770    4.4220   13.4310 C.2    50  ARG50       0.2260
     26  O         23.4440    5.4050   12.7230 O.2    50  ARG50      -0.2867
     27  CB        25.9640    3.8580   13.9120 C.3    50  ARG50       0.0307
     28  CG        26.5290    4.6450   12.7260 C.3    50  ARG50       0.0489
     29  CD        27.9060    4.1760   12.2410 C.3    50  ARG50       0.2205
     30  NE        27.8170    2.7900   11.7750 N.pl3  50  ARG50      -0.0865
     31  CZ        28.1480    1.7420   12.5230 C.cat  50  ARG50       0.5346
     32  NH1       28.6770    1.9580   13.7200 N.pl3  50  ARG50       0.1354
     33  NH2       28.0080    0.5000   12.0550 N.pl3  50  ARG50       0.1354
     34  N         27.3170    4.7740    7.6660 N.3    54  PHE54      -0.1241
     35  CA        28.4040    5.5030    8.2810 C.3    54  PHE54       0.1605
     36  C         28.3990    6.8820    7.6250 C.2    54  PHE54       0.2264
     37  O         28.2550    7.9250    8.2900 O.2    54  PHE54      -0.2867
     38  CB        29.7520    4.8170    8.0190 C.3    54  PHE54       0.0534
     39  CG        30.1180    3.7510    9.0060 C.ar   54  PHE54      -0.0203
     40  CD1       29.8380    2.3880    8.7250 C.ar   54  PHE54      -0.0042
     41  CD2       30.8140    4.0720   10.1800 C.ar   54  PHE54      -0.0042
     42  CE1       30.2240    1.3670    9.6040 C.ar   54  PHE54      -0.0003
     43  CE2       31.1820    3.0600   11.0860 C.ar   54  PHE54      -0.0003
     44  CZ        30.8870    1.7020   10.7900 C.ar   54  PHE54      -0.0000
     45  N         23.5470   -4.3230   18.2280 N.3    98  LEU98      -0.1245
     46  CA        24.7620   -5.0930   18.1840 C.3    98  LEU98       0.1561
     47  C         25.6090   -4.6400   19.3540 C.2    98  LEU98       0.2260
     48  O         26.6050   -3.9270   19.1850 O.2    98  LEU98      -0.2867
     49  CB        25.4920   -4.8460   16.8520 C.3    98  LEU98       0.0270
     50  CG        24.7210   -5.2600   15.5890 C.3    98  LEU98       0.0019
     51  CD1       25.5180   -5.0730   14.3240 C.3    98  LEU98       0.0001
     52  CD2       24.3280   -6.6860   15.6900 C.3    98  LEU98       0.0001
     53  N         40.2700   -2.3980   21.1720 N.3   112  ARG112     -0.1245
     54  CA        38.8680   -2.2730   21.6000 C.3   112  ARG112      0.1563
     55  C         38.7440   -2.4670   23.1180 C.2   112  ARG112      0.2260
     56  O         37.6830   -2.8150   23.6200 O.2   112  ARG112     -0.2867
     57  CB        37.9740   -3.2580   20.8340 C.3   112  ARG112      0.0307
     58  CG        38.0700   -3.0500   19.3300 C.3   112  ARG112      0.0489
     59  CD        37.1740   -3.9830   18.4460 C.3   112  ARG112      0.2205
     60  NE        35.7190   -3.7150   18.5300 N.pl3 112  ARG112     -0.0865
     61  CZ        34.8170   -4.3490   17.7770 C.cat 112  ARG112      0.5346
     62  NH1       35.2110   -5.2790   16.8980 N.pl3 112  ARG112      0.1354
     63  NH2       33.5330   -4.0710   17.8830 N.pl3 112  ARG112      0.1354
     64  N         28.4440   -9.2940   22.4150 N.3   145  LYS145     -0.1231
     65  CA        29.5470   -9.6810   21.5520 C.3   145  LYS145      0.1693
     66  C         30.8790   -9.4980   22.3100 C.2   145  LYS145      0.2592
     67  O         30.8880   -8.8070   23.3630 O.2   145  LYS145     -0.2718
     68  CB        29.4960   -8.8780   20.2690 C.3   145  LYS145      0.0285
     69  CG        29.5320   -7.3340   20.4310 C.3   145  LYS145      0.0035
     70  CD        29.0940   -6.6550   19.1340 C.3   145  LYS145      0.0206
     71  CE        29.7670   -5.3070   18.9650 C.3   145  LYS145      0.1093
     72  NZ        28.9900   -4.3670   18.0990 N.3   145  LYS145     -0.1314
     73  N         31.9910  -10.1100   21.8610 N.am  146  HIS146     -0.1976
     74  CA        32.0830  -11.0400   20.7490 C.3   146  HIS146      0.1656
     75  C         32.5070  -12.3930   21.3150 C.2   146  HIS146      0.2291
     76  O         33.5920  -12.5320   21.9200 O.2   146  HIS146     -0.2864
     77  CB        33.1170  -10.5850   19.7090 C.3   146  HIS146      0.0771
     78  CG        33.0120   -9.1460   19.2940 C.ar  146  HIS146      0.0820
     79  ND1       33.7390   -8.1490   19.9020 N.ar  146  HIS146     -0.2267
     80  CD2       32.3130   -8.5450   18.2950 C.ar  146  HIS146      0.1154
     81  CE1       33.4880   -6.9920   19.3030 C.ar  146  HIS146      0.1986
     82  NE2       32.6090   -7.2010   18.3370 N.ar  146  HIS146     -0.2212
     83  N         43.0060  -10.3750   14.0590 N.3   156  ARG156     -0.1245
     84  CA        41.7590  -10.9790   14.5710 C.3   156  ARG156      0.1563
     85  C         41.0030  -11.9790   13.6930 C.2   156  ARG156      0.2260
     86  O         40.3190  -12.8150   14.2280 O.2   156  ARG156     -0.2867
     87  CB        40.7880   -9.8920   15.0250 C.3   156  ARG156      0.0307
     88  CG        40.2220   -8.9970   13.8990 C.3   156  ARG156      0.0489
     89  CD        39.7900   -7.6630   14.4460 C.3   156  ARG156      0.2205
     90  NE        39.4320   -6.7980   13.3470 N.pl3 156  ARG156     -0.0865
     91  CZ        38.2600   -6.1700   13.2350 C.cat 156  ARG156      0.5346
     92  NH1       37.3280   -6.2560   14.1860 N.pl3 156  ARG156      0.1354
     93  NH2       38.0400   -5.4360   12.1590 N.pl3 156  ARG156      0.1354
     94  N         26.8260  -12.4820   19.2540 N.3   189  MET189     -0.1245
     95  CA        27.6910  -12.4640   18.0800 C.3   189  MET189      0.1570
     96  C         28.9690  -13.2600   18.3390 C.2   189  MET189      0.2261
     97  O         29.6490  -13.0450   19.3400 O.2   189  MET189     -0.2867
     98  CB        28.0800  -11.0320   17.7290 C.3   189  MET189      0.0387
     99  CG        28.5520  -10.8340   16.2880 C.3   189  MET189      0.0595
    100  SD        29.2480   -9.1990   16.0290 S.3   189  MET189     -0.1393
    101  CE        27.7300   -8.1800   15.9830 C.3   189  MET189      0.0692
    102  N         35.5410  -13.0660   15.7170 N.3   192  TYR192     -0.1241
    103  CA        36.3550  -13.3460   14.5370 C.3   192  TYR192      0.1605
    104  C         37.4430  -14.4010   14.7280 C.2   192  TYR192      0.2264
    105  O         37.8400  -15.0720   13.7720 O.2   192  TYR192     -0.2867
    106  CB        37.0880  -12.0800   14.1390 C.3   192  TYR192      0.0534
    107  CG        36.2710  -11.0430   13.4040 C.ar  192  TYR192     -0.0201
    108  CD1       35.6520  -11.3480   12.1790 C.ar  192  TYR192     -0.0009
    109  CD2       36.1860   -9.7210   13.8880 C.ar  192  TYR192     -0.0009
    110  CE1       34.9620  -10.3700   11.4680 C.ar  192  TYR192      0.0417
    111  CE2       35.5300   -8.7300   13.1710 C.ar  192  TYR192      0.0417
    112  CZ        34.9210   -9.0580   11.9580 C.ar  192  TYR192      0.1957
    113  OH        34.2380   -8.0850   11.2510 O.3   192  TYR192     -0.2866
    114  N         30.2530  -12.3990   13.2930 N.3   224  ASP224     -0.1225
    115  CA        30.8120  -11.0860   13.1320 C.3   224  ASP224      0.1805
    116  C         30.7750  -10.8080   11.6170 C.2   224  ASP224      0.2597
    117  O         30.6710  -11.7170   10.8300 O.2   224  ASP224     -0.2718
    118  CB        32.2240  -11.0240   13.7320 C.3   224  ASP224      0.1424
    119  CG        32.5330   -9.6560   14.3330 C.2   224  ASP224      0.3668
    120  OD1       32.9380   -9.6210   15.5160 O.co2 224  ASP224     -0.2456
    121  OD2       32.3180   -8.5940   13.6400 O.co2 224  ASP224     -0.2456
    122  N         30.8310   -9.5580   11.2050 N.am  225  TRP225     -0.1976
    123  CA        30.6820   -9.2290    9.7780 C.3   225  TRP225      0.1640
    124  C         31.8100   -9.8400    8.9250 C.2   225  TRP225      0.2290
    125  O         32.9800   -9.4230    9.0420 O.2   225  TRP225     -0.2864
    126  CB        30.6290   -7.7040    9.5970 C.3   225  TRP225      0.0576
    127  CG        29.2070   -7.1320    9.6730 C.ar  225  TRP225      0.0006
    128  CD1       28.6500   -6.1950    8.8090 C.ar  225  TRP225      0.0946
    129  CD2       28.1860   -7.4390   10.6360 C.ar  225  TRP225      0.0152
    130  NE1       27.3700   -5.9160    9.1940 N.ar  225  TRP225     -0.2442
    131  CE2       27.0470   -6.6660   10.2950 C.ar  225  TRP225      0.0810
    132  CE3       28.1130   -8.3000   11.7470 C.ar  225  TRP225      0.0012
    133  CZ2       25.8490   -6.7200   11.0260 C.ar  225  TRP225      0.0191
    134  CZ3       26.9200   -8.3720   12.4820 C.ar  225  TRP225      0.0001
    135  CH2       25.7940   -7.5770   12.1110 C.ar  225  TRP225      0.0015
    136  N         33.3110    0.3270   14.5800 N.3   355  SER355     -0.1217
    137  CA        31.8920    0.0350   14.5970 C.3   355  SER355      0.1889
    138  C         31.1660    0.5840   15.8320 C.2   355  SER355      0.2288
    139  O         29.9460    0.5060   15.8890 O.2   355  SER355     -0.2866
    140  CB        31.6480   -1.4900   14.5230 C.3   355  SER355      0.2089
    141  OG        32.1410   -2.1490   15.6840 O.3   355  SER355     -0.2183
    142  N         32.0830    1.8660    3.8020 N.3   444  PHE444     -0.1241
    143  CA        31.8950    0.4600    4.1600 C.3   444  PHE444      0.1605
    144  C         30.5410    0.0090    3.6900 C.2   444  PHE444      0.2264
    145  O         30.4370   -0.9440    2.9020 O.2   444  PHE444     -0.2867
    146  CB        32.0200    0.3430    5.6960 C.3   444  PHE444      0.0534
    147  CG        31.7500   -1.0490    6.2960 C.ar  444  PHE444     -0.0203
    148  CD1       32.5700   -2.1680    5.9720 C.ar  444  PHE444     -0.0042
    149  CD2       30.7510   -1.2020    7.2860 C.ar  444  PHE444     -0.0042
    150  CE1       32.3510   -3.4500    6.5750 C.ar  444  PHE444     -0.0003
    151  CE2       30.5160   -2.4710    7.9200 C.ar  444  PHE444     -0.0003
    152  CZ        31.3180   -3.6080    7.5550 C.ar  444  PHE444     -0.0000
    153  N         40.4580    0.7620    9.6210 N.3   507  PHE507     -0.1241
    154  CA        40.6200   -0.4650   10.4660 C.3   507  PHE507      0.1605
    155  C         41.9930   -1.1060   10.1520 C.2   507  PHE507      0.2264
    156  O         42.1410   -2.3320   10.0960 O.2   507  PHE507     -0.2867
    157  CB        39.5300   -1.5450   10.2130 C.3   507  PHE507      0.0534
    158  CG        38.0880   -1.0590   10.3070 C.ar  507  PHE507     -0.0203
    159  CD1       37.3960   -1.0850   11.5280 C.ar  507  PHE507     -0.0042
    160  CD2       37.3970   -0.6550    9.1600 C.ar  507  PHE507     -0.0042
    161  CE1       36.0560   -0.6750   11.6180 C.ar  507  PHE507     -0.0003
    162  CE2       36.0610   -0.2370    9.2340 C.ar  507  PHE507     -0.0003
    163  CZ        35.3830   -0.2450   10.4700 C.ar  507  PHE507     -0.0000
    164  N         38.8520   -0.2780   16.9220 N.3   586  GLU586     -0.1245
    165  CA        38.7250   -1.4850   16.1270 C.3   586  GLU586      0.1567
    166  C         39.7460   -1.4900   14.9950 C.2   586  GLU586      0.2260
    167  O         39.9870   -0.4750   14.3740 O.2   586  GLU586     -0.2867
    168  CB        37.3290   -1.5910   15.5570 C.3   586  GLU586      0.0388
    169  CG        37.1320   -2.8920   14.8190 C.3   586  GLU586      0.1160
    170  CD        35.7350   -3.0920   14.2960 C.2   586  GLU586      0.3649
    171  OE1       34.8380   -2.2930   14.6470 O.co2 586  GLU586     -0.2457
    172  OE2       35.5410   -4.0720   13.5430 O.co2 586  GLU586     -0.2457
@<TRIPOS>BOND
     1   145   144    2
     2   144   143    1
     3   142   143    1
     4   143   146    1
     5   146   147    1
     6   148   147   ar
     7   148   150   ar
     8   147   149   ar
     9   150   152   ar
    10     1     2    1
    11   149   151   ar
    12   152   151   ar
    13     7     9   ar
    14     7     6   ar
    15    36    35    1
    16    36    37    2
    17    34    35    1
    18     9    10   ar
    19    38    35    1
    20    38    39    1
    21     2     3    1
    22     2     5    1
    23     3     4    2
    24     6     5    1
    25     6     8   ar
    26    40    39   ar
    27    40    42   ar
    28    10    12   ar
    29    10     8   ar
    30   128   130   ar
    31   128   127   ar
    32   124   125    2
    33   124   123    1
    34    39    41   ar
    35   160   162   ar
    36   160   158   ar
    37   130   131   ar
    38   162   163   ar
    39    12    14   ar
    40     8    11   ar
    41   126   127    1
    42   126   123    1
    43    42    44   ar
    44   153   154    1
    45   127   129   ar
    46   123   122    1
    47   156   155    2
    48   155   154    1
    49    41    43   ar
    50   157   158    1
    51   157   154    1
    52   131   129   ar
    53   131   133   ar
    54   158   159   ar
    55    11    13   ar
    56    14    13   ar
    57   163   161   ar
    58   129   132   ar
    59    44    43   ar
    60   117   116    2
    61   133   135   ar
    62   122   116   am
    63   113   112    1
    64   110   112   ar
    65   110   108   ar
    66   159   161   ar
    67   116   115    1
    68   132   134   ar
    69    30    29    1
    70    30    31    2
    71   112   111   ar
    72    33    31    1
    73   135   134   ar
    74    93    91    1
    75   108   107   ar
    76    29    28    1
    77    31    32    1
    78    26    25    2
    79    28    27    1
    80   115   114    1
    81   115   118    1
    82   111   109   ar
    83    91    90    2
    84    91    92    1
    85    90    89    1
    86   107   109   ar
    87   107   106    1
    88    25    24    1
    89   172   170   ar
    90   121   119   ar
    91    22    20   ar
    92    85    86    2
    93    85    84    1
    94   118   119    1
    95   105   104    2
    96    88    89    1
    97    88    87    1
    98    27    24    1
    99    83    84    1
   100   106   103    1
   101   170   171   ar
   102   170   169    1
   103    51    50    1
   104   119   120   ar
   105   167   166    2
   106    24    23    1
   107   140   137    1
   108   140   141    1
   109   103   104    1
   110   103   102    1
   111    84    87    1
   112   136   137    1
   113   137   138    1
   114    20    19    1
   115    20    21   ar
   116   169   168    1
   117    15    16    1
   118   166   165    1
   119    19    16    1
   120   168   165    1
   121    50    52    1
   122    50    49    1
   123   138   139    2
   124    16    17    1
   125   101   100    1
   126   100    99    1
   127   165   164    1
   128    99    98    1
   129    18    17    2
   130    49    46    1
   131    62    61    1
   132    98    95    1
   133    61    63    1
   134    61    60    2
   135    95    96    1
   136    95    94    1
   137    72    71    1
   138    46    45    1
   139    46    47    1
   140    80    82   ar
   141    80    78   ar
   142    82    81   ar
   143    96    97    2
   144    59    60    1
   145    59    58    1
   146    71    70    1
   147    70    69    1
   148    48    47    2
   149    78    77    1
   150    78    79   ar
   151    81    79   ar
   152    58    57    1
   153    77    74    1
   154    68    69    1
   155    68    65    1
   156    74    75    1
   157    74    73    1
   158    57    54    1
   159    53    54    1
   160    75    76    2
   161    65    66    1
   162    65    64    1
   163    54    55    1
   164    73    66   am
   165    66    67    2
   166    55    56    2
