@<TRIPOS>MOLECULE
tmp/3ac1A01.pdb
 120 113 0 0 0
SMALL
GASTEIGER

@<TRIPOS>ATOM
      1  N         -1.3350    2.5410   -9.5560 N.3    21  LEU21      -0.1231
      2  CA        -0.3330    3.6030   -9.6780 C.3    21  LEU21       0.1693
      3  C          1.0670    3.0670   -9.4870 C.2    21  LEU21       0.2593
      4  O          2.0330    3.6200  -10.0350 O.2    21  LEU21      -0.2718
      5  CB        -0.5630    4.6920   -8.6320 C.3    21  LEU21       0.0284
      6  CG        -1.9350    5.3350   -8.7150 C.3    21  LEU21       0.0019
      7  CD1       -2.1580    6.1880   -7.4690 C.3    21  LEU21       0.0001
      8  CD2       -2.0540    6.1600  -10.0080 C.3    21  LEU21       0.0001
      9  N          1.1880    2.0340   -8.6530 N.am   22  GLY22      -0.1942
     10  CA         2.4970    1.4110   -8.4080 C.3    22  GLY22       0.2014
     11  C          2.3770    0.0120   -7.8560 C.2    22  GLY22       0.2638
     12  O          1.3260   -0.3780   -7.3480 O.2    22  GLY22      -0.2714
     13  N          3.4750   -0.7420   -7.9300 N.am   23  ALA23      -0.1977
     14  CA         3.4810   -2.1000   -7.4000 C.3    23  ALA23       0.1597
     15  C          4.9090   -2.4730   -7.0690 C.2    23  ALA23       0.2287
     16  O          5.8650   -2.0990   -7.7650 O.2    23  ALA23      -0.2864
     17  CB         2.8720   -3.0730   -8.3760 C.3    23  ALA23       0.0319
     18  N         -0.2670    0.2920   -4.9840 N.3    29  VAL29      -0.1245
     19  CA        -0.9100    1.5600   -4.6790 C.3    29  VAL29       0.1561
     20  C         -1.8310    1.8860   -5.8260 C.2    29  VAL29       0.2260
     21  O         -1.4050    1.8770   -6.9910 O.2    29  VAL29      -0.2867
     22  CB         0.1010    2.7070   -4.5060 C.3    29  VAL29       0.0252
     23  CG1       -0.6520    4.0420   -4.3630 C.3    29  VAL29       0.0019
     24  CG2        1.0150    2.4470   -3.2930 C.3    29  VAL29       0.0019
     25  N         -6.2560    7.5130   -2.4860 N.3    41  ALA41      -0.1245
     26  CA        -5.1640    6.5680   -2.8040 C.3    41  ALA41       0.1562
     27  C         -5.3210    5.3820   -1.8840 C.2    41  ALA41       0.2260
     28  O         -5.5740    5.5640   -0.6950 O.2    41  ALA41      -0.2867
     29  CB        -3.7950    7.2220   -2.5760 C.3    41  ALA41       0.0290
     30  N          0.0210   14.5640    4.0420 N.3    71  VAL71      -0.1245
     31  CA        -0.9550   13.6980    3.4080 C.3    71  VAL71       0.1561
     32  C         -1.7530   13.0510    4.5310 C.2    71  VAL71       0.2260
     33  O         -1.1900   12.5240    5.5080 O.2    71  VAL71      -0.2867
     34  CB        -0.2650   12.6530    2.4710 C.3    71  VAL71       0.0252
     35  CG1       -1.2620   11.6120    1.9600 C.3    71  VAL71       0.0019
     36  CG2        0.3870   13.3910    1.2820 C.3    71  VAL71       0.0019
     37  N         -5.5390    6.8710    1.8280 N.3    86  THR86      -0.1203
     38  CA        -5.0700    8.2290    2.1210 C.3    86  THR86       0.1994
     39  C         -5.6140    9.2600    1.1430 C.2    86  THR86       0.2618
     40  O         -6.2370    8.9180    0.1230 O.2    86  THR86      -0.2717
     41  CB        -3.5010    8.3300    2.1380 C.3    86  THR86       0.1784
     42  OG1       -2.9810    8.0210    0.8320 O.3    86  THR86      -0.2211
     43  CG2       -2.8790    7.3530    3.1940 C.3    86  THR86       0.0376
     44  N         -5.4180   10.5280    1.5120 N.am   87  GLU87      -0.1965
     45  CA        -5.6740   11.6890    0.6600 C.3    87  GLU87       0.1733
     46  C         -5.0150   11.5090   -0.7220 C.2    87  GLU87       0.2616
     47  O         -3.8060   11.2560   -0.8030 O.2    87  GLU87      -0.2715
     48  CB        -5.0660   12.9010    1.3580 C.3    87  GLU87       0.0429
     49  CG        -5.3220   14.2350    0.7070 C.3    87  GLU87       0.1163
     50  CD        -4.8820   15.4030    1.5810 C.2    87  GLU87       0.3649
     51  OE1       -4.0800   15.2060    2.5310 O.co2  87  GLU87      -0.2457
     52  OE2       -5.3340   16.5430    1.3150 O.co2  87  GLU87      -0.2457
     53  N         -5.7920   11.6630   -1.7890 N.am   88  TYR88      -0.1960
     54  CA        -5.2430   11.5490   -3.1480 C.3    88  TYR88       0.1771
     55  C         -4.5790   12.8470   -3.5970 C.2    88  TYR88       0.2619
     56  O         -5.1510   13.9390   -3.4570 O.2    88  TYR88      -0.2715
     57  CB        -6.3190   11.1410   -4.1670 C.3    88  TYR88       0.0574
     58  CG        -5.7620   10.8310   -5.5540 C.ar   88  TYR88      -0.0198
     59  CD1       -4.9120    9.7490   -5.7450 C.ar   88  TYR88      -0.0009
     60  CD2       -6.0830   11.6080   -6.6610 C.ar   88  TYR88      -0.0009
     61  CE1       -4.3900    9.4460   -6.9970 C.ar   88  TYR88       0.0417
     62  CE2       -5.5550   11.3120   -7.9320 C.ar   88  TYR88       0.0417
     63  CZ        -4.7160   10.2180   -8.0890 C.ar   88  TYR88       0.1957
     64  OH        -4.1590    9.8780   -9.3330 O.3    88  TYR88      -0.2866
     65  N         -3.3670   12.7280   -4.1250 N.am   89  MET89      -0.1963
     66  CA        -2.6180   13.9040   -4.5710 C.3    89  MET89       0.1736
     67  C         -2.4740   13.8330   -6.1150 C.2    89  MET89       0.2616
     68  O         -1.7170   13.0360   -6.6570 O.2    89  MET89      -0.2715
     69  CB        -1.2590   13.9650   -3.8770 C.3    89  MET89       0.0427
     70  CG        -1.3200   14.0200   -2.3170 C.3    89  MET89       0.0599
     71  SD        -2.1280   15.4980   -1.6750 S.3    89  MET89      -0.1393
     72  CE        -1.0590   16.8180   -2.1930 C.3    89  MET89       0.0692
     73  N         -3.1640   14.7190   -6.7920 N.am   90  GLU90      -0.1963
     74  CA        -3.4710   14.5500   -8.2070 C.3    90  GLU90       0.1733
     75  C         -2.2570   14.6790   -9.1170 C.2    90  GLU90       0.2616
     76  O         -2.2990   14.2260  -10.2570 O.2    90  GLU90      -0.2715
     77  CB        -4.5560   15.5600   -8.6290 C.3    90  GLU90       0.0429
     78  CG        -5.1470   15.3090  -10.0510 C.3    90  GLU90       0.1163
     79  CD        -6.6040   14.7840  -10.0640 C.2    90  GLU90       0.3649
     80  OE1       -7.3920   15.1320   -9.1440 O.co2  90  GLU90      -0.2457
     81  OE2       -6.9640   14.0290  -11.0100 O.co2  90  GLU90      -0.2457
     82  N         -1.1940   15.3450   -8.6550 N.am   91  ASN91      -0.1958
     83  CA        -0.0190   15.4860   -9.5250 C.3    91  ASN91       0.1819
     84  C          1.1340   14.6020   -9.0820 C.2    91  ASN91       0.2622
     85  O          2.2490   14.7780   -9.5300 O.2    91  ASN91      -0.2715
     86  CB         0.4330   16.9440   -9.6420 C.3    91  ASN91       0.1195
     87  CG        -0.3410   17.6950  -10.7000 C.2    91  ASN91       0.2630
     88  OD1       -0.4870   17.2210  -11.8430 O.2    91  ASN91      -0.2716
     89  ND2       -0.8340   18.8610  -10.3410 N.am   91  ASN91      -0.0877
     90  N          0.8550   13.6600   -8.1910 N.am   92  GLY92      -0.1940
     91  CA         1.8350   12.6200   -7.8440 C.3    92  GLY92       0.2014
     92  C          3.0500   13.1240   -7.0940 C.2    92  GLY92       0.2639
     93  O          2.9770   14.1400   -6.3720 O.2    92  GLY92      -0.2714
     94  N          4.1720   12.4170   -7.2440 N.am   93  SER93      -0.1949
     95  CA         5.3540   12.7590   -6.4840 C.3    93  SER93       0.1924
     96  C          6.0530   13.9680   -7.0980 C.2    93  SER93       0.2314
     97  O          6.0060   14.1870   -8.3300 O.2    93  SER93      -0.2863
     98  CB         6.3160   11.5700   -6.3930 C.3    93  SER93       0.2116
     99  OG         7.1020   11.5030   -7.5620 O.3    93  SER93      -0.2180
    100  N          8.6530   13.2930   -9.7720 N.3    96  ASP96      -0.1239
    101  CA         8.0290   13.0230  -11.0730 C.3    96  ASP96       0.1674
    102  C          7.3940   14.2810  -11.6720 C.2    96  ASP96       0.2266
    103  O          7.5710   14.5820  -12.8730 O.2    96  ASP96      -0.2867
    104  CB         6.9780   11.8980  -10.9770 C.3    96  ASP96       0.1410
    105  CG         7.5830   10.5450  -10.5650 C.2    96  ASP96       0.3668
    106  OD1        8.7370   10.2420  -10.9550 O.co2  96  ASP96      -0.2456
    107  OD2        6.9140    9.7780   -9.8200 O.co2  96  ASP96      -0.2456
    108  N         11.0000   12.3570   -3.8170 N.3   138  ALA138     -0.1245
    109  CA        10.1260   11.1860   -4.0880 C.3   138  ALA138      0.1562
    110  C          8.9740   11.0680   -3.0680 C.2   138  ALA138      0.2260
    111  O          7.9260   10.4840   -3.3750 O.2   138  ALA138     -0.2867
    112  CB        10.9440    9.8430   -4.1100 C.3   138  ALA138      0.0290
    113  N          4.2890   14.9620   -2.1830 N.3   141  LEU141     -0.1245
    114  CA         3.2460   14.8000   -3.2030 C.3   141  LEU141      0.1561
    115  C          2.6680   16.1670   -3.5510 C.2   141  LEU141      0.2260
    116  O          2.6860   17.0990   -2.7240 O.2   141  LEU141     -0.2867
    117  CB         2.1270   13.8240   -2.7420 C.3   141  LEU141      0.0270
    118  CG         2.5840   12.4130   -2.3730 C.3   141  LEU141      0.0019
    119  CD1        1.4270   11.4620   -1.9790 C.3   141  LEU141      0.0001
    120  CD2        3.3820   11.8170   -3.5150 C.3   141  LEU141      0.0001
@<TRIPOS>BOND
     1   103   102    2
     2    88    87    2
     3   102   101    1
     4   101   104    1
     5   101   100    1
     6    81    79   ar
     7   104   105    1
     8   106   105   ar
     9    87    89   am
    10    87    86    1
    11   105   107   ar
    12    76    75    2
    13    79    78    1
    14    79    80   ar
    15    78    77    1
    16     4     3    2
    17     8     6    1
    18     2     1    1
    19     2     3    1
    20     2     5    1
    21    86    83    1
    22    85    84    2
    23    83    84    1
    24    83    82    1
    25     3     9   am
    26    64    63    1
    27    75    82   am
    28    75    74    1
    29    84    90   am
    30     6     5    1
    31     6     7    1
    32     9    10    1
    33    77    74    1
    34    10    11    1
    35    17    14    1
    36    97    96    2
    37    74    73    1
    38    90    91    1
    39    63    62   ar
    40    63    61   ar
    41    62    60   ar
    42    13    11   am
    43    13    14    1
    44    11    12    2
    45    91    92    1
    46    16    15    2
    47    99    98    1
    48    14    15    1
    49    94    92   am
    50    94    95    1
    51    96    95    1
    52    92    93    2
    53    61    59   ar
    54    21    20    2
    55    73    67   am
    56    60    58   ar
    57    68    67    2
    58    95    98    1
    59    67    66    1
    60    20    19    1
    61    59    58   ar
    62    58    57    1
    63    18    19    1
    64    19    22    1
    65    66    65    1
    66    66    69    1
    67    22    23    1
    68    22    24    1
    69    57    54    1
    70    65    55   am
    71   112   109    1
    72   109   108    1
    73   109   110    1
    74    69    70    1
    75    55    56    2
    76    55    54    1
    77   115   114    1
    78   115   116    2
    79   120   118    1
    80   111   110    2
    81   114   117    1
    82   114   113    1
    83    54    53    1
    84    26    29    1
    85    26    25    1
    86    26    27    1
    87   117   118    1
    88   118   119    1
    89    70    71    1
    90    72    71    1
    91    27    28    2
    92    53    46   am
    93    47    46    2
    94    46    45    1
    95    40    39    2
    96    45    48    1
    97    45    44    1
    98    49    48    1
    99    49    50    1
   100    42    41    1
   101    39    44   am
   102    39    38    1
   103    36    34    1
   104    52    50   ar
   105    50    51   ar
   106    37    38    1
   107    35    34    1
   108    38    41    1
   109    41    43    1
   110    34    31    1
   111    31    30    1
   112    31    32    1
   113    32    33    2
