@<TRIPOS>MOLECULE
tmp/3ac2A01.pdb
 146 136 0 0 0
SMALL
GASTEIGER

@<TRIPOS>ATOM
      1  N         30.7070   38.4780    2.4220 N.3    21  LEU21      -0.1231
      2  CA        30.8150   37.4530    3.4590 C.3    21  LEU21       0.1693
      3  C         30.6160   36.0380    2.9150 C.2    21  LEU21       0.2592
      4  O         31.2490   35.0900    3.4030 O.2    21  LEU21      -0.2718
      5  CB        29.8180   37.7300    4.5920 C.3    21  LEU21       0.0284
      6  CG        29.9590   39.1410    5.1940 C.3    21  LEU21       0.0019
      7  CD1       28.9940   39.3530    6.3330 C.3    21  LEU21       0.0001
      8  CD2       31.4210   39.4610    5.6290 C.3    21  LEU21       0.0001
      9  N         29.7350   35.9040    1.9170 N.am   22  GLY22      -0.1957
     10  CA        29.4490   34.6180    1.2540 C.3    22  GLY22       0.1869
     11  C         28.9350   34.7990   -0.1740 C.2    22  GLY22       0.2309
     12  O         28.4200   35.8690   -0.5340 O.2    22  GLY22      -0.2863
     13  N         26.0510   37.4480    0.1870 N.3    29  VAL29      -0.1245
     14  CA        25.7840   38.1020    1.4540 C.3    29  VAL29       0.1561
     15  C         26.9360   39.0370    1.7430 C.2    29  VAL29       0.2260
     16  O         28.0880   38.6450    1.6300 O.2    29  VAL29      -0.2867
     17  CB        25.6350   37.1020    2.6080 C.3    29  VAL29       0.0252
     18  CG1       25.4900   37.8890    3.9470 C.3    29  VAL29       0.0019
     19  CG2       24.4130   36.1720    2.3230 C.3    29  VAL29       0.0019
     20  N         23.6160   43.3440    7.4040 N.3    41  ALA41      -0.1245
     21  CA        23.9120   42.2820    6.4620 C.3    41  ALA41       0.1562
     22  C         22.9800   42.4510    5.2560 C.2    41  ALA41       0.2260
     23  O         21.7910   42.6970    5.4330 O.2    41  ALA41      -0.2867
     24  CB        23.7030   40.8790    7.1210 C.3    41  ALA41       0.0290
     25  N         21.6240   40.4550    1.8550 N.3    43  LYS43      -0.1245
     26  CA        21.5650   39.2740    1.0110 C.3    43  LYS43       0.1561
     27  C         20.9640   39.6160   -0.3710 C.2    43  LYS43       0.2260
     28  O         19.8640   40.1850   -0.4600 O.2    43  LYS43      -0.2867
     29  CB        20.8060   38.1310    1.7060 C.3    43  LYS43       0.0271
     30  CG        20.6710   36.8960    0.8100 C.3    43  LYS43       0.0035
     31  CD        20.5440   35.5850    1.6110 C.3    43  LYS43       0.0206
     32  CE        19.1040   35.2280    1.9380 C.3    43  LYS43       0.1093
     33  NZ        18.9300   33.7080    1.9270 N.3    43  LYS43      -0.1314
     34  N         10.9060   34.7190    2.3520 N.3    58  GLU58      -0.1245
     35  CA        11.6580   34.6750    3.6020 C.3    58  GLU58       0.1567
     36  C         11.5130   36.0200    4.3290 C.2    58  GLU58       0.2260
     37  O         11.2210   36.0590    5.5290 O.2    58  GLU58      -0.2867
     38  CB        13.1600   34.3860    3.3360 C.3    58  GLU58       0.0388
     39  CG        13.9800   34.4400    4.6270 C.3    58  GLU58       0.1160
     40  CD        15.4190   34.0330    4.4540 C.2    58  GLU58       0.3649
     41  OE1       15.8960   33.9240    3.3060 O.co2  58  GLU58      -0.2457
     42  OE2       16.0650   33.7970    5.4940 O.co2  58  GLU58      -0.2457
     43  N         17.0400   36.9070   14.4250 N.3    71  VAL71      -0.1245
     44  CA        17.6380   37.8590   13.4800 C.3    71  VAL71       0.1561
     45  C         16.5450   38.7200   12.8180 C.2    71  VAL71       0.2260
     46  O         15.5870   38.1920   12.2790 O.2    71  VAL71      -0.2867
     47  CB        18.6250   37.1650   12.4570 C.3    71  VAL71       0.0252
     48  CG1       19.1070   38.1670   11.3980 C.3    71  VAL71       0.0019
     49  CG2       19.8380   36.6000   13.2010 C.3    71  VAL71       0.0019
     50  N         19.2050   42.5650    6.7070 N.3    86  THR86      -0.1203
     51  CA        18.9060   42.1010    8.0740 C.3    86  THR86       0.1994
     52  C         19.9160   42.6530    9.0970 C.2    86  THR86       0.2618
     53  O         20.9160   43.2740    8.7450 O.2    86  THR86      -0.2717
     54  CB        18.8470   40.5280    8.1530 C.3    86  THR86       0.1784
     55  OG1       20.1320   40.0000    7.8150 O.3    86  THR86      -0.2211
     56  CG2       17.8070   39.9590    7.1730 C.3    86  THR86       0.0376
     57  N         19.5520   42.5510   10.3640 N.am   87  GLU87      -0.1965
     58  CA        20.4650   42.6900   11.4970 C.3    87  GLU87       0.1733
     59  C         21.8270   42.0160   11.2960 C.2    87  GLU87       0.2616
     60  O         21.9070   40.7720   11.1410 O.2    87  GLU87      -0.2715
     61  CB        19.7950   42.0250   12.7010 C.3    87  GLU87       0.0429
     62  CG        20.4580   42.2870   14.0520 C.3    87  GLU87       0.1163
     63  CD        19.5320   41.9090   15.2440 C.2    87  GLU87       0.3649
     64  OE1       18.5890   41.0970   15.0320 O.co2  87  GLU87      -0.2457
     65  OE2       19.7290   42.4580   16.3720 O.co2  87  GLU87      -0.2457
     66  N         22.8850   42.8020   11.4690 N.am   88  TYR88      -0.1960
     67  CA        24.2480   42.2890   11.3400 C.3    88  TYR88       0.1771
     68  C         24.6780   41.6180   12.6590 C.2    88  TYR88       0.2619
     69  O         24.3980   42.1320   13.7580 O.2    88  TYR88      -0.2715
     70  CB        25.2270   43.3850   10.8840 C.3    88  TYR88       0.0574
     71  CG        26.6430   42.8730   10.6150 C.ar   88  TYR88      -0.0198
     72  CD1       26.9180   42.0640    9.5110 C.ar   88  TYR88      -0.0009
     73  CD2       27.6800   43.1500   11.4990 C.ar   88  TYR88      -0.0009
     74  CE1       28.2040   41.5460    9.2950 C.ar   88  TYR88       0.0417
     75  CE2       28.9650   42.6400   11.2890 C.ar   88  TYR88       0.0417
     76  CZ        29.2330   41.8520   10.1870 C.ar   88  TYR88       0.1957
     77  OH        30.5290   41.3380    9.9850 O.3    88  TYR88      -0.2866
     78  N         25.2700   40.4390   12.5560 N.am   89  MET89      -0.1963
     79  CA        25.6770   39.6800   13.7440 C.3    89  MET89       0.1736
     80  C         27.2150   39.5280   13.6930 C.2    89  MET89       0.2616
     81  O         27.7700   38.8220   12.8620 O.2    89  MET89      -0.2715
     82  CB        24.9360   38.3230   13.7790 C.3    89  MET89       0.0427
     83  CG        23.3720   38.4280   13.8360 C.3    89  MET89       0.0599
     84  SD        22.7840   39.2300   15.3420 S.3    89  MET89      -0.1393
     85  CE        23.3540   38.0520   16.5570 C.3    89  MET89       0.0692
     86  N         27.8980   40.2210   14.5810 N.am   90  GLU90      -0.1963
     87  CA        29.3050   40.4660   14.4120 C.3    90  GLU90       0.1733
     88  C         30.1690   39.2180   14.4790 C.2    90  GLU90       0.2616
     89  O         31.2500   39.2200   13.9230 O.2    90  GLU90      -0.2715
     90  CB        29.7850   41.4960   15.4340 C.3    90  GLU90       0.0429
     91  CG        31.1520   42.0740   15.1160 C.3    90  GLU90       0.1163
     92  CD        31.1260   43.2700   14.1380 C.2    90  GLU90       0.3649
     93  OE1       31.9480   43.2700   13.1960 O.co2  90  GLU90      -0.2457
     94  OE2       30.3280   44.2280   14.3420 O.co2  90  GLU90      -0.2457
     95  N         29.7220   38.1700   15.1720 N.am   91  ASN91      -0.1958
     96  CA        30.5400   36.9760   15.3280 C.3    91  ASN91       0.1819
     97  C         30.1660   35.8210   14.4130 C.2    91  ASN91       0.2622
     98  O         30.6580   34.7010   14.5650 O.2    91  ASN91      -0.2715
     99  CB        30.6340   36.5640   16.8000 C.3    91  ASN91       0.1195
    100  CG        31.7270   37.3230   17.5190 C.2    91  ASN91       0.2630
    101  OD1       32.8170   37.5240   16.9680 O.2    91  ASN91      -0.2716
    102  ND2       31.4420   37.7810   18.7130 N.am   91  ASN91      -0.0877
    103  N         29.3120   36.1100   13.4450 N.am   92  GLY92      -0.1940
    104  CA        29.0060   35.1530   12.3720 C.3    92  GLY92       0.2014
    105  C         28.1930   33.9590   12.8080 C.2    92  GLY92       0.2639
    106  O         27.4290   34.0550   13.7720 O.2    92  GLY92      -0.2714
    107  N         28.3250   32.8320   12.1060 N.am   93  SER93      -0.1949
    108  CA        27.5540   31.6650   12.5220 C.3    93  SER93       0.1924
    109  C         28.1390   30.9670   13.7650 C.2    93  SER93       0.2314
    110  O         29.3650   30.9380   13.9450 O.2    93  SER93      -0.2863
    111  CB        27.3730   30.6740   11.3810 C.3    93  SER93       0.2116
    112  OG        28.4570   29.7790   11.3410 O.3    93  SER93      -0.2180
    113  N         30.9150   28.3920   13.1600 N.3    96  ASP96      -0.1239
    114  CA        32.2470   28.9790   12.8960 C.3    96  ASP96       0.1674
    115  C         32.8060   29.6130   14.1590 C.2    96  ASP96       0.2266
    116  O         33.9980   29.4460   14.5010 O.2    96  ASP96      -0.2867
    117  CB        32.2490   30.0060   11.7400 C.3    96  ASP96       0.1410
    118  CG        31.7780   29.4100   10.4220 C.2    96  ASP96       0.3668
    119  OD1       32.0350   28.2330   10.1720 O.co2  96  ASP96      -0.2456
    120  OD2       31.1110   30.1040    9.6480 O.co2  96  ASP96      -0.2456
    121  N         24.8520   26.0080   12.2220 N.3   138  ALA138     -0.1245
    122  CA        25.1580   26.8750   11.0780 C.3   138  ALA138      0.1562
    123  C         24.1140   28.0130   10.9530 C.2   138  ALA138      0.2260
    124  O         24.4250   29.0820   10.4350 O.2   138  ALA138     -0.2867
    125  CB        25.2280   26.0420    9.7470 C.3   138  ALA138      0.0290
    126  N         23.2680   32.7370   14.6970 N.3   141  LEU141     -0.1245
    127  CA        24.2940   33.7790   14.5880 C.3   141  LEU141      0.1561
    128  C         24.6180   34.3520   15.9650 C.2   141  LEU141      0.2260
    129  O         23.7940   34.2940   16.8920 O.2   141  LEU141     -0.2867
    130  CB        23.8920   34.8950   13.5990 C.3   141  LEU141      0.0270
    131  CG        23.5340   34.4910   12.1590 C.3   141  LEU141      0.0019
    132  CD1       23.2430   35.7020   11.2140 C.3   141  LEU141      0.0001
    133  CD2       24.6800   33.6240   11.5680 C.3   141  LEU141      0.0001
    134  N         18.4510   32.3250   12.8690 N.3   151  ALA151     -0.1231
    135  CA        18.6380   32.9290   11.5610 C.3   151  ALA151      0.1694
    136  C         18.1210   31.9500   10.4880 C.2   151  ALA151      0.2592
    137  O         17.8200   30.7610   10.7790 O.2   151  ALA151     -0.2718
    138  CB        20.1410   33.2400   11.3470 C.3   151  ALA151      0.0304
    139  N         18.0140   32.4700    9.2700 N.am  152  ASP152     -0.1974
    140  CA        17.7090   31.6880    8.0790 C.3   152  ASP152      0.1709
    141  C         16.3200   31.0530    8.1280 C.2   152  ASP152      0.2293
    142  O         16.1750   29.8640    8.4280 O.2   152  ASP152     -0.2864
    143  CB        18.7710   30.6170    7.7860 C.3   152  ASP152      0.1436
    144  CG        18.6770   30.0900    6.3290 C.2   152  ASP152      0.3671
    145  OD1       17.5510   30.0870    5.7250 O.co2 152  ASP152     -0.2456
    146  OD2       19.7330   29.6930    5.7940 O.co2 152  ASP152     -0.2456
@<TRIPOS>BOND
     1    12    11    2
     2    28    27    2
     3    27    26    1
     4    11    10    1
     5    13    14    1
     6    30    31    1
     7    30    29    1
     8    26    29    1
     9    26    25    1
    10    10     9    1
    11    14    15    1
    12    14    17    1
    13    31    32    1
    14    16    15    2
    15     9     3   am
    16    33    32    1
    17    19    17    1
    18    34    35    1
    19     1     2    1
    20    17    18    1
    21     3     4    2
    22     3     2    1
    23    41    40   ar
    24    38    35    1
    25    38    39    1
    26     2     5    1
    27    35    36    1
    28    36    37    2
    29    40    39    1
    30    40    42   ar
    31     5     6    1
    32     6     8    1
    33     6     7    1
    34    22    23    2
    35    22    21    1
    36   145   144   ar
    37   146   144   ar
    38   144   143    1
    39    21    24    1
    40    21    20    1
    41    50    51    1
    42    56    54    1
    43   143   140    1
    44    55    54    1
    45    51    54    1
    46    51    52    1
    47   140   141    1
    48   140   139    1
    49   141   142    2
    50    53    52    2
    51    52    57   am
    52   139   136   am
    53    74    72   ar
    54    74    76   ar
    55    72    71   ar
    56   120   118   ar
    57   125   122    1
    58    77    76    1
    59   119   118   ar
    60    76    75   ar
    61    57    58    1
    62   118   117    1
    63   124   123    2
    64   136   137    2
    65   136   135    1
    66    71    70    1
    67    71    73   ar
    68    70    67    1
    69   123   122    1
    70   122   121    1
    71    60    59    2
    72   132   131    1
    73    75    73   ar
    74    59    66   am
    75    59    58    1
    76    67    66    1
    77    67    68    1
    78   112   111    1
    79   138   135    1
    80   111   108    1
    81    48    47    1
    82    58    61    1
    83   135   134    1
    84   133   131    1
    85   117   114    1
    86   107   108    1
    87   107   105   am
    88   131   130    1
    89    46    45    2
    90   104   105    1
    91   104   103    1
    92    47    49    1
    93    47    44    1
    94   108   109    1
    95    78    68   am
    96    78    79    1
    97    68    69    2
    98    61    62    1
    99   105   106    2
   100    45    44    1
   101    81    80    2
   102   114   113    1
   103   114   115    1
   104    93    92   ar
   105   103    97   am
   106    44    43    1
   107   130   127    1
   108    80    79    1
   109    80    86   am
   110    79    82    1
   111   109   110    2
   112    82    83    1
   113    83    84    1
   114    89    88    2
   115    62    63    1
   116    92    94   ar
   117    92    91    1
   118   115   116    2
   119    87    88    1
   120    87    86    1
   121    87    90    1
   122    97    98    2
   123    97    96    1
   124    88    95   am
   125   127   126    1
   126   127   128    1
   127    64    63   ar
   128    91    90    1
   129    95    96    1
   130    63    65   ar
   131    96    99    1
   132    84    85    1
   133   128   129    2
   134    99   100    1
   135   101   100    2
   136   100   102   am
