@<TRIPOS>MOLECULE
tmp/3ac3A00.pdb
 153 143 0 0 0
SMALL
GASTEIGER

@<TRIPOS>ATOM
      1  N         10.7690   -7.5660   -2.4590 N.3    19  GLU19      -0.1245
      2  CA        11.5470   -6.3260   -2.4550 C.3    19  GLU19       0.1567
      3  C         10.6590   -5.1170   -2.1590 C.2    19  GLU19       0.2260
      4  O          9.6540   -4.9000   -2.8300 O.2    19  GLU19      -0.2867
      5  CB        12.2540   -6.1400   -3.8030 C.3    19  GLU19       0.0388
      6  CG        13.2130   -4.9480   -3.8600 C.3    19  GLU19       0.1160
      7  CD        13.7290   -4.6570   -5.2660 C.2    19  GLU19       0.3649
      8  OE1       13.4280   -5.4380   -6.1920 O.co2  19  GLU19      -0.2457
      9  OE2       14.4340   -3.6420   -5.4460 O.co2  19  GLU19      -0.2457
     10  N          9.5890   -1.5040   -2.4850 N.3    21  LEU21      -0.1231
     11  CA         9.7740   -0.4530   -3.4830 C.3    21  LEU21       0.1693
     12  C          9.5640    0.9400   -2.9040 C.2    21  LEU21       0.2592
     13  O         10.1170    1.9210   -3.4040 O.2    21  LEU21      -0.2718
     14  CB         8.8200   -0.6520   -4.6630 C.3    21  LEU21       0.0284
     15  CG         8.8790   -1.9680   -5.4370 C.3    21  LEU21       0.0019
     16  CD1        8.0030   -1.8630   -6.6710 C.3    21  LEU21       0.0001
     17  CD2       10.3100   -2.3180   -5.8260 C.3    21  LEU21       0.0001
     18  N          8.7440    1.0240   -1.8610 N.am   22  GLY22      -0.1957
     19  CA         8.3970    2.3060   -1.2530 C.3    22  GLY22       0.1869
     20  C          7.9180    2.1730    0.1820 C.2    22  GLY22       0.2309
     21  O          7.3690    1.1440    0.5830 O.2    22  GLY22      -0.2863
     22  N          5.0910   -0.3460   -0.1880 N.3    29  VAL29      -0.1245
     23  CA         4.8160   -0.9160   -1.5040 C.3    29  VAL29       0.1561
     24  C          5.8980   -1.9240   -1.8690 C.2    29  VAL29       0.2260
     25  O          7.0760   -1.5780   -1.9500 O.2    29  VAL29      -0.2867
     26  CB         4.7460    0.1650   -2.5900 C.3    29  VAL29       0.0252
     27  CG1        4.4810   -0.4690   -3.9520 C.3    29  VAL29       0.0019
     28  CG2        3.6720    1.1820   -2.2470 C.3    29  VAL29       0.0019
     29  N          2.3810   -6.5340   -7.4010 N.3    41  ALA41      -0.1245
     30  CA         2.7640   -5.4220   -6.5480 C.3    41  ALA41       0.1562
     31  C          1.8730   -5.4170   -5.3140 C.2    41  ALA41       0.2260
     32  O          0.6530   -5.4660   -5.4260 O.2    41  ALA41      -0.2867
     33  CB         2.6390   -4.1080   -7.3040 C.3    41  ALA41       0.0290
     34  N          0.6510   -3.4480   -1.9660 N.3    43  LYS43      -0.1245
     35  CA         0.5400   -2.2320   -1.1710 C.3    43  LYS43       0.1561
     36  C         -0.0280   -2.6090    0.1900 C.2    43  LYS43       0.2260
     37  O         -1.1200   -3.1670    0.2800 O.2    43  LYS43      -0.2867
     38  CB        -0.3910   -1.2420   -1.8680 C.3    43  LYS43       0.0271
     39  CG        -0.5100    0.1180   -1.2050 C.3    43  LYS43       0.0035
     40  CD        -1.6010    0.9310   -1.8860 C.3    43  LYS43       0.0206
     41  CE        -1.7280    2.3260   -1.2970 C.3    43  LYS43       0.1093
     42  NZ        -2.8210    3.0950   -1.9570 N.3    43  LYS43      -0.1314
     43  N         -4.0950    0.0570  -14.5980 N.3    71  VAL71      -0.1245
     44  CA        -3.4960   -0.9390  -13.7110 C.3    71  VAL71       0.1561
     45  C         -4.5940   -1.7850  -13.0770 C.2    71  VAL71       0.2260
     46  O         -5.5770   -1.2500  -12.5730 O.2    71  VAL71      -0.2867
     47  CB        -2.6120   -0.2800  -12.6130 C.3    71  VAL71       0.0252
     48  CG1       -2.3010   -1.2630  -11.4910 C.3    71  VAL71       0.0019
     49  CG2       -1.3310    0.2510  -13.2120 C.3    71  VAL71       0.0019
     50  N         -1.9210   -5.5170   -6.8400 N.3    86  THR86      -0.1203
     51  CA        -2.2370   -5.0150   -8.1710 C.3    86  THR86       0.1994
     52  C         -1.2650   -5.5240   -9.2310 C.2    86  THR86       0.2618
     53  O         -0.2320   -6.1140   -8.9080 O.2    86  THR86      -0.2717
     54  CB        -2.2580   -3.4630   -8.2060 C.3    86  THR86       0.1784
     55  OG1       -0.9790   -2.9540   -7.8070 O.3    86  THR86      -0.2211
     56  CG2       -3.3310   -2.9100   -7.2710 C.3    86  THR86       0.0376
     57  N         -1.6280   -5.3050  -10.4930 N.am   87  GLU87      -0.1965
     58  CA        -0.7780   -5.6050  -11.6470 C.3    87  GLU87       0.1733
     59  C          0.5940   -4.9790  -11.4470 C.2    87  GLU87       0.2616
     60  O          0.7010   -3.8360  -11.0130 O.2    87  GLU87      -0.2715
     61  CB        -1.4200   -5.0290  -12.9190 C.3    87  GLU87       0.0429
     62  CG        -0.7830   -5.4710  -14.2310 C.3    87  GLU87       0.1163
     63  CD        -1.5970   -5.0530  -15.4510 C.2    87  GLU87       0.3649
     64  OE1       -2.6020   -4.3330  -15.2820 O.co2  87  GLU87      -0.2457
     65  OE2       -1.2380   -5.4440  -16.5810 O.co2  87  GLU87      -0.2457
     66  N          1.6380   -5.7280  -11.7710 N.am   88  TYR88      -0.1960
     67  CA         3.0000   -5.2410  -11.6040 C.3    88  TYR88       0.1771
     68  C          3.5500   -4.6250  -12.8850 C.2    88  TYR88       0.2619
     69  O          3.5320   -5.2540  -13.9490 O.2    88  TYR88      -0.2715
     70  CB         3.9200   -6.3670  -11.1460 C.3    88  TYR88       0.0574
     71  CG         5.3290   -5.9050  -10.8770 C.ar   88  TYR88      -0.0198
     72  CD1        5.6650   -5.3300   -9.6590 C.ar   88  TYR88      -0.0009
     73  CD2        6.3180   -6.0280  -11.8390 C.ar   88  TYR88      -0.0009
     74  CE1        6.9470   -4.8950   -9.4050 C.ar   88  TYR88       0.0417
     75  CE2        7.6070   -5.5960  -11.5940 C.ar   88  TYR88       0.0417
     76  CZ         7.9180   -5.0300  -10.3740 C.ar   88  TYR88       0.1957
     77  OH         9.2020   -4.5960  -10.1130 O.3    88  TYR88      -0.2866
     78  N          4.0510   -3.3970  -12.7770 N.am   89  MET89      -0.1963
     79  CA         4.6340   -2.7080  -13.9220 C.3    89  MET89       0.1736
     80  C          6.1610   -2.6440  -13.7950 C.2    89  MET89       0.2616
     81  O          6.6960   -2.0100  -12.8860 O.2    89  MET89      -0.2715
     82  CB         4.0100   -1.3230  -14.0760 C.3    89  MET89       0.0427
     83  CG         2.4740   -1.3270  -14.0570 C.3    89  MET89       0.0599
     84  SD         1.7200   -2.1500  -15.4820 S.3    89  MET89      -0.1393
     85  CE         2.3580   -1.1570  -16.8280 C.3    89  MET89       0.0692
     86  N          6.8540   -3.3110  -14.7150 N.am   90  GLU90      -0.1963
     87  CA         8.2980   -3.5450  -14.6010 C.3    90  GLU90       0.1733
     88  C          9.1490   -2.2800  -14.6670 C.2    90  GLU90       0.2616
     89  O         10.2330   -2.2270  -14.0830 O.2    90  GLU90      -0.2715
     90  CB         8.7670   -4.5520  -15.6570 C.3    90  GLU90       0.0429
     91  CG        10.2120   -5.0290  -15.5020 C.3    90  GLU90       0.1163
     92  CD        10.3810   -6.0790  -14.4090 C.2    90  GLU90       0.3649
     93  OE1        9.5660   -7.0320  -14.3540 O.co2  90  GLU90      -0.2457
     94  OE2       11.3410   -5.9590  -13.6130 O.co2  90  GLU90      -0.2457
     95  N          8.6710   -1.2650  -15.3780 N.am   91  ASN91      -0.1958
     96  CA         9.4430   -0.0360  -15.5360 C.3    91  ASN91       0.1819
     97  C          9.0570    1.0790  -14.5750 C.2    91  ASN91       0.2622
     98  O          9.6630    2.1500  -14.5790 O.2    91  ASN91      -0.2715
     99  CB         9.4390    0.4380  -16.9890 C.3    91  ASN91       0.1195
    100  CG        10.4620   -0.2930  -17.8340 C.2    91  ASN91       0.2630
    101  OD1       11.5090   -0.6970  -17.3370 O.2    91  ASN91      -0.2716
    102  ND2       10.1690   -0.4580  -19.1170 N.am   91  ASN91      -0.0877
    103  N          8.0520    0.8130  -13.7470 N.am   92  GLY92      -0.1940
    104  CA         7.7110    1.6940  -12.6380 C.3    92  GLY92       0.2014
    105  C          7.0170    2.9730  -13.0500 C.2    92  GLY92       0.2639
    106  O          6.2180    2.9910  -13.9860 O.2    92  GLY92      -0.2714
    107  N          7.3290    4.0480  -12.3360 N.am   93  SER93      -0.1949
    108  CA         6.7350    5.3510  -12.5840 C.3    93  SER93       0.1924
    109  C          7.2510    5.9720  -13.8850 C.2    93  SER93       0.2314
    110  O          8.4410    5.8740  -14.2030 O.2    93  SER93      -0.2863
    111  CB         7.0340    6.2780  -11.4050 C.3    93  SER93       0.2116
    112  OG         6.3430    7.5060  -11.5300 O.3    93  SER93      -0.2180
    113  N          7.3820    9.2060  -14.5910 N.3    95  VAL95      -0.1231
    114  CA         8.2390   10.3230  -14.2260 C.3    95  VAL95       0.1692
    115  C          9.6690    9.8510  -13.9810 C.2    95  VAL95       0.2592
    116  O         10.6260   10.5510  -14.3230 O.2    95  VAL95      -0.2718
    117  CB         7.6940   11.1240  -13.0080 C.3    95  VAL95       0.0266
    118  CG1        7.9520   10.3870  -11.7050 C.3    95  VAL95       0.0020
    119  CG2        8.3310   12.5050  -12.9600 C.3    95  VAL95       0.0020
    120  N          9.8170    8.6540  -13.4170 N.am   96  ASP96      -0.1974
    121  CA        11.1440    8.0940  -13.1680 C.3    96  ASP96       0.1709
    122  C         11.7670    7.5080  -14.4290 C.2    96  ASP96       0.2293
    123  O         12.9150    7.8190  -14.7550 O.2    96  ASP96      -0.2864
    124  CB        11.1060    7.0380  -12.0610 C.3    96  ASP96       0.1436
    125  CG        10.7730    7.6270  -10.7040 C.2    96  ASP96       0.3671
    126  OD1       11.0480    8.8260  -10.4910 O.co2  96  ASP96      -0.2456
    127  OD2       10.2310    6.8950   -9.8510 O.co2  96  ASP96      -0.2456
    128  N          3.7720   10.9750  -12.3850 N.3   138  ALA138     -0.1245
    129  CA         4.0620   10.1820  -11.1970 C.3   138  ALA138      0.1562
    130  C          3.0630    9.0330  -11.0430 C.2   138  ALA138      0.2260
    131  O          3.3970    7.9800  -10.4860 O.2   138  ALA138     -0.2867
    132  CB         4.0620   11.0690   -9.9550 C.3   138  ALA138      0.0290
    133  N          2.1250    4.3400  -14.9890 N.3   141  LEU141     -0.1245
    134  CA         3.0980    3.2610  -14.8590 C.3   141  LEU141      0.1561
    135  C          3.4560    2.6440  -16.2100 C.2   141  LEU141      0.2260
    136  O          2.6190    2.5470  -17.1080 O.2   141  LEU141     -0.2867
    137  CB         2.6140    2.1880  -13.8770 C.3   141  LEU141      0.0270
    138  CG         2.2940    2.5960  -12.4330 C.3   141  LEU141      0.0019
    139  CD1        2.2890    1.3750  -11.5370 C.3   141  LEU141      0.0001
    140  CD2        3.2820    3.6150  -11.9020 C.3   141  LEU141      0.0001
    141  N         -2.7980    4.7440  -13.0120 N.3   151  ALA151     -0.1231
    142  CA        -2.6560    4.1180  -11.7010 C.3   151  ALA151      0.1694
    143  C         -3.0780    5.0550  -10.5760 C.2   151  ALA151      0.2592
    144  O         -3.3680    6.2290  -10.8130 O.2   151  ALA151     -0.2718
    145  CB        -1.2240    3.6510  -11.4970 C.3   151  ALA151      0.0304
    146  N         -3.0900    4.5270   -9.3530 N.am  152  ASP152     -0.1974
    147  CA        -3.4820    5.2790   -8.1560 C.3   152  ASP152      0.1709
    148  C         -4.8650    5.9100   -8.2740 C.2   152  ASP152      0.2293
    149  O         -5.0000    7.0570   -8.6970 O.2   152  ASP152     -0.2864
    150  CB        -2.4430    6.3440   -7.7960 C.3   152  ASP152      0.1436
    151  CG        -2.6750    6.9430   -6.4080 C.2   152  ASP152      0.3671
    152  OD1       -3.7310    6.6520   -5.7940 O.co2 152  ASP152     -0.2456
    153  OD2       -1.7980    7.6980   -5.9270 O.co2 152  ASP152     -0.2456
@<TRIPOS>BOND
     1   102   100   am
     2   100   101    2
     3   100    99    1
     4   136   135    2
     5    99    96    1
     6    85    84    1
     7    65    63   ar
     8   135   134    1
     9    90    91    1
    10    90    87    1
    11    96    95    1
    12    96    97    1
    13    91    92    1
    14    84    83    1
    15    63    64   ar
    16    63    62    1
    17    95    88   am
    18   133   134    1
    19   134   137    1
    20   123   122    2
    21    86    87    1
    22    86    80   am
    23    88    87    1
    24    88    89    2
    25    43    44    1
    26   113   114    1
    27    98    97    2
    28    97   103   am
    29   122   121    1
    30    92    93   ar
    31    92    94   ar
    32   116   115    2
    33    62    61    1
    34   114   115    1
    35   114   117    1
    36   110   109    2
    37    82    83    1
    38    82    79    1
    39   106   105    2
    40   115   120   am
    41    69    68    2
    42    79    80    1
    43    79    78    1
    44   109   108    1
    45   137   138    1
    46    80    81    2
    47   103   104    1
    48    44    45    1
    49    44    47    1
    50   120   121    1
    51    49    47    1
    52   121   124    1
    53    45    46    2
    54   105   104    1
    55   105   107   am
    56   141   142    1
    57   117   119    1
    58   117   118    1
    59    61    58    1
    60    68    78   am
    61    68    67    1
    62    47    48    1
    63   108   107    1
    64   108   111    1
    65   138   140    1
    66   138   139    1
    67   128   129    1
    68   124   125    1
    69    73    75   ar
    70    73    71   ar
    71    66    67    1
    72    66    59   am
    73   142   145    1
    74   142   143    1
    75    58    59    1
    76    58    57    1
    77    67    70    1
    78    75    76   ar
    79   112   111    1
    80    59    60    2
    81   129   130    1
    82   129   132    1
    83    70    71    1
    84   130   131    2
    85    71    72   ar
    86   144   143    2
    87   125   126   ar
    88   125   127   ar
    89   143   146   am
    90    57    52   am
    91    76    77    1
    92    76    74   ar
    93    72    74   ar
    94   146   147    1
    95    52    53    2
    96    52    51    1
    97   149   148    2
    98   148   147    1
    99    54    51    1
   100    54    55    1
   101    54    56    1
   102    51    50    1
   103   147   150    1
   104   150   151    1
   105    29    30    1
   106    33    30    1
   107    16    15    1
   108    30    31    1
   109   151   153   ar
   110   151   152   ar
   111     8     7   ar
   112    17    15    1
   113     9     7   ar
   114    15    14    1
   115    32    31    2
   116     7     6    1
   117    14    11    1
   118    27    26    1
   119     6     5    1
   120     5     2    1
   121    11    12    1
   122    11    10    1
   123    13    12    2
   124    12    18   am
   125     4     3    2
   126    26    28    1
   127    26    23    1
   128     1     2    1
   129     2     3    1
   130    34    35    1
   131    42    41    1
   132    25    24    2
   133    40    41    1
   134    40    39    1
   135    24    23    1
   136    38    39    1
   137    38    35    1
   138    18    19    1
   139    23    22    1
   140    19    20    1
   141    35    36    1
   142    20    21    2
   143    36    37    2
