@<TRIPOS>MOLECULE
tmp/3ac4A00.pdb
 128 120 0 0 0
SMALL
GASTEIGER

@<TRIPOS>ATOM
      1  N         10.6990   -7.6520   -2.4510 N.3    19  GLU19      -0.1245
      2  CA        11.4860   -6.4250   -2.5200 C.3    19  GLU19       0.1567
      3  C         10.6180   -5.1970   -2.2160 C.2    19  GLU19       0.2260
      4  O          9.5830   -4.9820   -2.8480 O.2    19  GLU19      -0.2867
      5  CB        12.1310   -6.2950   -3.9060 C.3    19  GLU19       0.0388
      6  CG        13.2550   -5.2610   -3.9920 C.3    19  GLU19       0.1160
      7  CD        13.6480   -4.9040   -5.4280 C.2    19  GLU19       0.3649
      8  OE1       13.3060   -5.6640   -6.3660 O.co2  19  GLU19      -0.2457
      9  OE2       14.3040   -3.8530   -5.6130 O.co2  19  GLU19      -0.2457
     10  N          9.5240   -1.5590   -2.5050 N.3    21  LEU21      -0.1231
     11  CA         9.6760   -0.4830   -3.4820 C.3    21  LEU21       0.1693
     12  C          9.4920    0.8930   -2.8570 C.2    21  LEU21       0.2592
     13  O         10.1020    1.8670   -3.3030 O.2    21  LEU21      -0.2718
     14  CB         8.7090   -0.6690   -4.6580 C.3    21  LEU21       0.0284
     15  CG         8.8680   -1.9470   -5.4910 C.3    21  LEU21       0.0019
     16  CD1        7.9780   -1.9090   -6.7150 C.3    21  LEU21       0.0001
     17  CD2       10.3130   -2.1900   -5.8950 C.3    21  LEU21       0.0001
     18  N          8.6560    0.9700   -1.8230 N.am   22  GLY22      -0.1957
     19  CA         8.3870    2.2360   -1.1430 C.3    22  GLY22       0.1869
     20  C          7.8660    2.1090    0.2800 C.2    22  GLY22       0.2309
     21  O          7.2120    1.1270    0.6330 O.2    22  GLY22      -0.2863
     22  N          5.0320   -0.3860   -0.0780 N.3    29  VAL29      -0.1245
     23  CA         4.7920   -0.9880   -1.3920 C.3    29  VAL29       0.1561
     24  C          5.8730   -1.9990   -1.7610 C.2    29  VAL29       0.2260
     25  O          7.0510   -1.6550   -1.8580 O.2    29  VAL29      -0.2867
     26  CB         4.7200    0.0730   -2.5030 C.3    29  VAL29       0.0252
     27  CG1        4.4420   -0.5940   -3.8480 C.3    29  VAL29       0.0019
     28  CG2        3.6540    1.1120   -2.1790 C.3    29  VAL29       0.0019
     29  N          2.3630   -6.4960   -7.4120 N.3    41  ALA41      -0.1245
     30  CA         2.7060   -5.3740   -6.5470 C.3    41  ALA41       0.1562
     31  C          1.7890   -5.3790   -5.3330 C.2    41  ALA41       0.2260
     32  O          0.5710   -5.4850   -5.4720 O.2    41  ALA41      -0.2867
     33  CB         2.5780   -4.0660   -7.3000 C.3    41  ALA41       0.0290
     34  N          0.4940   -3.4860   -1.7900 N.3    43  LYS43      -0.1245
     35  CA         0.4190   -2.2930   -0.9570 C.3    43  LYS43       0.1561
     36  C         -0.1490   -2.6510    0.4120 C.2    43  LYS43       0.2260
     37  O         -1.2670   -3.1640    0.5150 O.2    43  LYS43      -0.2867
     38  CB        -0.4370   -1.2140   -1.6230 C.3    43  LYS43       0.0271
     39  CG        -0.1770    0.1800   -1.0770 C.3    43  LYS43       0.0035
     40  CD        -0.8600    1.2550   -1.9050 C.3    43  LYS43       0.0206
     41  CE        -2.1980    1.6540   -1.3110 C.3    43  LYS43       0.1093
     42  NZ        -2.7300    2.8850   -1.9750 N.3    43  LYS43      -0.1314
     43  N         -4.1200    0.0950  -14.7080 N.3    71  VAL71      -0.1245
     44  CA        -3.5220   -0.8680  -13.7850 C.3    71  VAL71       0.1561
     45  C         -4.6290   -1.7020  -13.1470 C.2    71  VAL71       0.2260
     46  O         -5.6550   -1.1700  -12.7150 O.2    71  VAL71      -0.2867
     47  CB        -2.6680   -0.1790  -12.6960 C.3    71  VAL71       0.0252
     48  CG1       -2.2540   -1.1780  -11.6230 C.3    71  VAL71       0.0019
     49  CG2       -1.4400    0.4650  -13.3170 C.3    71  VAL71       0.0019
     50  N         -1.9500   -5.6610   -6.8240 N.3    86  THR86      -0.1203
     51  CA        -2.2620   -5.2070   -8.1750 C.3    86  THR86       0.1994
     52  C         -1.2170   -5.6370   -9.1970 C.2    86  THR86       0.2618
     53  O         -0.1310   -6.0970   -8.8400 O.2    86  THR86      -0.2717
     54  CB        -2.4150   -3.6720   -8.2390 C.3    86  THR86       0.1784
     55  OG1       -1.1930   -3.0480   -7.8240 O.3    86  THR86      -0.2211
     56  CG2       -3.5550   -3.2040   -7.3410 C.3    86  THR86       0.0376
     57  N         -1.5700   -5.4740  -10.4690 N.am   87  GLU87      -0.1965
     58  CA        -0.6980   -5.7610  -11.6080 C.3    87  GLU87       0.1733
     59  C          0.6720   -5.0840  -11.4920 C.2    87  GLU87       0.2616
     60  O          0.7640   -3.9090  -11.1250 O.2    87  GLU87      -0.2715
     61  CB        -1.4010   -5.2950  -12.8860 C.3    87  GLU87       0.0429
     62  CG        -0.6840   -5.5910  -14.1830 C.3    87  GLU87       0.1163
     63  CD        -1.5220   -5.2110  -15.3850 C.2    87  GLU87       0.3649
     64  OE1       -2.4750   -4.4260  -15.2240 O.co2  87  GLU87      -0.2457
     65  OE2       -1.2360   -5.7010  -16.4910 O.co2  87  GLU87      -0.2457
     66  N          1.7290   -5.8280  -11.8180 N.am   88  TYR88      -0.1960
     67  CA         3.0980   -5.3240  -11.6990 C.3    88  TYR88       0.1771
     68  C          3.5800   -4.6580  -12.9750 C.2    88  TYR88       0.2619
     69  O          3.4770   -5.2360  -14.0560 O.2    88  TYR88      -0.2715
     70  CB         4.0690   -6.4460  -11.3240 C.3    88  TYR88       0.0574
     71  CG         5.4580   -5.9410  -11.0100 C.ar   88  TYR88      -0.0198
     72  CD1        5.7130   -5.2510   -9.8310 C.ar   88  TYR88      -0.0009
     73  CD2        6.5080   -6.1400  -11.8910 C.ar   88  TYR88      -0.0009
     74  CE1        6.9730   -4.7760   -9.5370 C.ar   88  TYR88       0.0417
     75  CE2        7.7780   -5.6660  -11.6050 C.ar   88  TYR88       0.0417
     76  CZ         8.0030   -4.9860  -10.4250 C.ar   88  TYR88       0.1957
     77  OH         9.2610   -4.5140  -10.1210 O.3    88  TYR88      -0.2866
     78  N          4.1220   -3.4500  -12.8470 N.am   89  MET89      -0.1963
     79  CA         4.6460   -2.7260  -14.0000 C.3    89  MET89       0.1736
     80  C          6.1670   -2.6190  -13.8990 C.2    89  MET89       0.2616
     81  O          6.6960   -1.9120  -13.0430 O.2    89  MET89      -0.2715
     82  CB         3.9940   -1.3460  -14.1090 C.3    89  MET89       0.0427
     83  CG         2.4620   -1.3750  -14.1010 C.3    89  MET89       0.0599
     84  SD         1.7370   -2.3140  -15.4690 S.3    89  MET89      -0.1393
     85  CE         2.3820   -1.4030  -16.8650 C.3    89  MET89       0.0692
     86  N          6.8630   -3.3340  -14.7770 N.am   90  GLU90      -0.1963
     87  CA         8.3080   -3.5200  -14.6620 C.3    90  GLU90       0.1733
     88  C          9.1170   -2.2240  -14.6760 C.2    90  GLU90       0.2616
     89  O         10.1740   -2.1420  -14.0500 O.2    90  GLU90      -0.2715
     90  CB         8.8150   -4.4710  -15.7510 C.3    90  GLU90       0.0429
     91  CG        10.2860   -4.8580  -15.6240 C.3    90  GLU90       0.1163
     92  CD        10.5240   -5.9820  -14.6180 C.2    90  GLU90       0.3649
     93  OE1        9.8440   -7.0280  -14.7170 O.co2  90  GLU90      -0.2457
     94  OE2       11.3960   -5.8210  -13.7340 O.co2  90  GLU90      -0.2457
     95  N          8.6300   -1.2130  -15.3890 N.am   91  ASN91      -0.1958
     96  CA         9.4040    0.0130  -15.5710 C.3    91  ASN91       0.1819
     97  C          8.9930    1.1690  -14.6600 C.2    91  ASN91       0.2622
     98  O          9.3710    2.3190  -14.8880 O.2    91  ASN91      -0.2715
     99  CB         9.4210    0.4420  -17.0440 C.3    91  ASN91       0.1195
    100  CG        10.5260   -0.2370  -17.8410 C.2    91  ASN91       0.2630
    101  OD1       11.6980   -0.2000  -17.4570 O.2    91  ASN91      -0.2716
    102  ND2       10.1590   -0.8510  -18.9620 N.am   91  ASN91      -0.0877
    103  N          8.2200    0.8560  -13.6260 N.am   92  GLY92      -0.1940
    104  CA         7.8650    1.8400  -12.6090 C.3    92  GLY92       0.2014
    105  C          7.0860    3.0240  -13.1430 C.2    92  GLY92       0.2639
    106  O          6.4650    2.9480  -14.2030 O.2    92  GLY92      -0.2714
    107  N          7.1180    4.1230  -12.4020 N.am   93  SER93      -0.1949
    108  CA         6.3770    5.3140  -12.7780 C.3    93  SER93       0.1924
    109  C          7.0110    5.9940  -13.9800 C.2    93  SER93       0.2314
    110  O          8.2330    5.9560  -14.1600 O.2    93  SER93      -0.2863
    111  CB         6.3390    6.2940  -11.6160 C.3    93  SER93       0.2116
    112  OG         7.6270    6.8430  -11.4140 O.3    93  SER93      -0.2180
    113  N          9.7800    8.6250  -13.5520 N.3    96  ASP96      -0.1239
    114  CA        11.0950    8.0400  -13.2900 C.3    96  ASP96       0.1674
    115  C         11.6830    7.3880  -14.5330 C.2    96  ASP96       0.2266
    116  O         12.8690    7.5540  -14.8280 O.2    96  ASP96      -0.2867
    117  CB        11.0160    7.0030  -12.1730 C.3    96  ASP96       0.1410
    118  CG        10.8340    7.6250  -10.8120 C.2    96  ASP96       0.3668
    119  OD1       11.0730    8.8440  -10.6720 O.co2  96  ASP96      -0.2456
    120  OD2       10.4520    6.8890   -9.8790 O.co2  96  ASP96      -0.2456
    121  N          2.0970    4.2070  -14.8810 N.3   141  LEU141     -0.1245
    122  CA         3.0890    3.1410  -14.7750 C.3   141  LEU141      0.1561
    123  C          3.4980    2.6150  -16.1530 C.2   141  LEU141      0.2260
    124  O          2.7270    2.6930  -17.1040 O.2   141  LEU141     -0.2867
    125  CB         2.6040    2.0210  -13.8430 C.3   141  LEU141      0.0270
    126  CG         2.2650    2.4270  -12.3970 C.3   141  LEU141      0.0019
    127  CD1        1.9240    1.2260  -11.5380 C.3   141  LEU141      0.0001
    128  CD2        3.3830    3.2260  -11.7470 C.3   141  LEU141      0.0001
@<TRIPOS>BOND
     1   102   100   am
     2   100   101    2
     3   100    99    1
     4   124   123    2
     5    99    96    1
     6    85    84    1
     7    65    63   ar
     8   123   122    1
     9    90    91    1
    10    90    87    1
    11    91    92    1
    12    96    95    1
    13    96    97    1
    14    84    83    1
    15    95    88   am
    16    63    64   ar
    17    63    62    1
    18    98    97    2
    19   121   122    1
    20   116   115    2
    21    86    87    1
    22    86    80   am
    23   122   125    1
    24    93    92   ar
    25    43    44    1
    26    88    87    1
    27    88    89    2
    28    97   103   am
    29    92    94   ar
    30   115   114    1
    31   106   105    2
    32    62    61    1
    33   110   109    2
    34    82    83    1
    35    82    79    1
    36    69    68    2
    37    79    80    1
    38    79    78    1
    39   109   108    1
    40    80    81    2
    41   125   126    1
    42    44    45    1
    43    44    47    1
    44   103   104    1
    45   113   114    1
    46    49    47    1
    47   114   117    1
    48    45    46    2
    49   105   104    1
    50   105   107   am
    51    68    78   am
    52    68    67    1
    53    61    58    1
    54   108   107    1
    55   108   111    1
    56    47    48    1
    57   126   128    1
    58   126   127    1
    59   117   118    1
    60    73    75   ar
    61    73    71   ar
    62    66    67    1
    63    66    59   am
    64    67    70    1
    65   111   112    1
    66    58    59    1
    67    58    57    1
    68    75    76   ar
    69    59    60    2
    70    70    71    1
    71    71    72   ar
    72   118   119   ar
    73   118   120   ar
    74    57    52   am
    75    76    77    1
    76    76    74   ar
    77    72    74   ar
    78    52    53    2
    79    52    51    1
    80    54    51    1
    81    54    55    1
    82    54    56    1
    83    51    50    1
    84    29    30    1
    85    33    30    1
    86    16    15    1
    87    30    31    1
    88     8     7   ar
    89    17    15    1
    90     9     7   ar
    91    15    14    1
    92    32    31    2
    93     7     6    1
    94    14    11    1
    95     6     5    1
    96     5     2    1
    97    27    26    1
    98    11    12    1
    99    11    10    1
   100    13    12    2
   101    12    18   am
   102     4     3    2
   103     2     1    1
   104     2     3    1
   105    26    28    1
   106    26    23    1
   107    42    41    1
   108    40    41    1
   109    40    39    1
   110    25    24    2
   111    18    19    1
   112    34    35    1
   113    24    23    1
   114    38    39    1
   115    38    35    1
   116    23    22    1
   117    19    20    1
   118    35    36    1
   119    20    21    2
   120    36    37    2
