@<TRIPOS>MOLECULE
tmp/3ac5A00.pdb
 177 165 0 0 0
SMALL
GASTEIGER

@<TRIPOS>ATOM
      1  N         30.6160   38.1420    2.7580 N.3    21  LEU21      -0.1231
      2  CA        30.7430   37.1050    3.7700 C.3    21  LEU21       0.1693
      3  C         30.5830   35.7180    3.1880 C.2    21  LEU21       0.2592
      4  O         31.1700   34.7610    3.6980 O.2    21  LEU21      -0.2718
      5  CB        29.7130   37.3120    4.8810 C.3    21  LEU21       0.0284
      6  CG        29.7490   38.6640    5.5950 C.3    21  LEU21       0.0019
      7  CD1       28.7520   38.6520    6.7160 C.3    21  LEU21       0.0001
      8  CD2       31.1530   39.0070    6.1050 C.3    21  LEU21       0.0001
      9  N         29.7820   35.6160    2.1260 N.am   22  GLY22      -0.1957
     10  CA        29.4710   34.3340    1.4970 C.3    22  GLY22       0.1869
     11  C         28.9340   34.4290    0.0770 C.2    22  GLY22       0.2309
     12  O         28.3390   35.4380   -0.3190 O.2    22  GLY22      -0.2863
     13  N         25.9720   36.9440    0.5360 N.3    29  VAL29      -0.1245
     14  CA        25.6890   37.6070    1.7970 C.3    29  VAL29       0.1561
     15  C         26.8080   38.6130    2.0680 C.2    29  VAL29       0.2260
     16  O         27.9780   38.2590    2.0430 O.2    29  VAL29      -0.2867
     17  CB        25.6310   36.5990    2.9460 C.3    29  VAL29       0.0252
     18  CG1       25.1480   37.2730    4.2390 C.3    29  VAL29       0.0019
     19  CG2       24.7310   35.4310    2.5710 C.3    29  VAL29       0.0019
     20  N         23.6210   43.2620    7.4580 N.3    41  ALA41      -0.1245
     21  CA        23.9430   42.1960    6.5200 C.3    41  ALA41       0.1562
     22  C         22.9280   42.2240    5.3900 C.2    41  ALA41       0.2260
     23  O         21.7440   42.4440    5.6190 O.2    41  ALA41      -0.2867
     24  CB        23.9520   40.8440    7.2060 C.3    41  ALA41       0.0290
     25  N         21.4880   40.1460    2.1260 N.3    43  LYS43      -0.1245
     26  CA        21.4330   38.9210    1.3150 C.3    43  LYS43       0.1561
     27  C         21.0230   39.2130   -0.1220 C.2    43  LYS43       0.2260
     28  O         19.9710   39.8090   -0.3760 O.2    43  LYS43      -0.2867
     29  CB        20.5430   37.8340    1.9270 C.3    43  LYS43       0.0271
     30  CG        20.7610   36.4790    1.2540 C.3    43  LYS43       0.0035
     31  CD        20.2990   35.2950    2.0980 C.3    43  LYS43       0.0206
     32  CE        18.9420   34.8130    1.6580 C.3    43  LYS43       0.1093
     33  NZ        18.7110   33.4230    2.1070 N.3    43  LYS43      -0.1314
     34  N         10.8980   34.5810    2.3650 N.3    58  GLU58      -0.1245
     35  CA        11.6090   34.5510    3.6250 C.3    58  GLU58       0.1567
     36  C         11.4270   35.8630    4.3890 C.2    58  GLU58       0.2260
     37  O         11.1350   35.8470    5.5860 O.2    58  GLU58      -0.2867
     38  CB        13.0860   34.2560    3.4100 C.3    58  GLU58       0.0388
     39  CG        13.8300   34.0000    4.7080 C.3    58  GLU58       0.1160
     40  CD        15.2720   33.5990    4.4950 C.2    58  GLU58       0.3649
     41  OE1       15.7660   33.6860    3.3490 O.co2  58  GLU58      -0.2457
     42  OE2       15.9170   33.2170    5.4910 O.co2  58  GLU58      -0.2457
     43  N          9.6900   36.7710    8.1480 N.3    62  MET62      -0.1245
     44  CA        10.3970   37.4610    9.2070 C.3    62  MET62       0.1570
     45  C          9.6170   38.6810    9.7060 C.2    62  MET62       0.2261
     46  O          9.7370   39.0500   10.8710 O.2    62  MET62      -0.2867
     47  CB        11.8120   37.8400    8.7610 C.3    62  MET62       0.0387
     48  CG        12.6590   36.6410    8.3590 C.3    62  MET62       0.0595
     49  SD        14.2640   37.0820    7.6930 S.3    62  MET62      -0.1393
     50  CE        15.0470   37.8060    9.1310 C.3    62  MET62       0.0692
     51  N         17.1160   36.8320   14.6710 N.3    71  VAL71      -0.1245
     52  CA        17.7290   37.7990   13.7580 C.3    71  VAL71       0.1561
     53  C         16.6300   38.5880   13.0450 C.2    71  VAL71       0.2260
     54  O         15.7450   38.0090   12.4270 O.2    71  VAL71      -0.2867
     55  CB        18.6880   37.0800   12.7610 C.3    71  VAL71       0.0252
     56  CG1       19.1520   38.0080   11.6530 C.3    71  VAL71       0.0019
     57  CG2       19.8820   36.5200   13.5090 C.3    71  VAL71       0.0019
     58  N         17.4920   41.2850    0.6690 N.3    84  ILE84      -0.1245
     59  CA        16.9090   41.1730    2.0010 C.3    84  ILE84       0.1561
     60  C         17.9740   41.6850    2.9660 C.2    84  ILE84       0.2260
     61  O         19.0860   41.1570    2.9980 O.2    84  ILE84      -0.2867
     62  CB        16.5460   39.7120    2.3590 C.3    84  ILE84       0.0252
     63  CG1       15.4380   39.2060    1.4350 C.3    84  ILE84       0.0019
     64  CG2       16.1140   39.6060    3.8240 C.3    84  ILE84       0.0019
     65  CD1       15.1440   37.7350    1.5600 C.3    84  ILE84       0.0001
     66  N         19.2430   42.5380    6.8720 N.3    86  THR86      -0.1203
     67  CA        19.0070   42.1040    8.2510 C.3    86  THR86       0.1994
     68  C         19.9590   42.7140    9.2950 C.2    86  THR86       0.2618
     69  O         21.0140   43.2760    8.9670 O.2    86  THR86      -0.2717
     70  CB        19.1300   40.5440    8.4100 C.3    86  THR86       0.1784
     71  OG1       20.5120   40.1780    8.5310 O.3    86  THR86      -0.2211
     72  CG2       18.4970   39.7810    7.2470 C.3    86  THR86       0.0376
     73  N         19.5620   42.5650   10.5580 N.am   87  GLU87      -0.1965
     74  CA        20.4360   42.7160   11.7260 C.3    87  GLU87       0.1733
     75  C         21.7690   41.9930   11.4890 C.2    87  GLU87       0.2616
     76  O         21.7810   40.8190   11.0940 O.2    87  GLU87      -0.2715
     77  CB        19.7270   42.0810   12.9290 C.3    87  GLU87       0.0429
     78  CG        20.3080   42.3800   14.2950 C.3    87  GLU87       0.1163
     79  CD        19.4970   41.7410   15.4040 C.2    87  GLU87       0.3649
     80  OE1       18.4840   41.0830   15.0980 O.co2  87  GLU87      -0.2457
     81  OE2       19.8580   41.8740   16.5820 O.co2  87  GLU87      -0.2457
     82  N         22.8760   42.6960   11.7340 N.am   88  TYR88      -0.1960
     83  CA        24.2230   42.1510   11.5330 C.3    88  TYR88       0.1771
     84  C         24.7470   41.4620   12.7950 C.2    88  TYR88       0.2619
     85  O         24.6340   41.9960   13.9000 O.2    88  TYR88      -0.2715
     86  CB        25.2050   43.2510   11.0780 C.3    88  TYR88       0.0574
     87  CG        26.6120   42.7360   10.7830 C.ar   88  TYR88      -0.0198
     88  CD1       26.8470   41.8530    9.7300 C.ar   88  TYR88      -0.0009
     89  CD2       27.6960   43.1230   11.5570 C.ar   88  TYR88      -0.0009
     90  CE1       28.1120   41.3650    9.4730 C.ar   88  TYR88       0.0417
     91  CE2       28.9690   42.6500   11.2940 C.ar   88  TYR88       0.0417
     92  CZ        29.1730   41.7650   10.2590 C.ar   88  TYR88       0.1957
     93  OH        30.4440   41.2800    9.9910 O.3    88  TYR88      -0.2866
     94  N         25.2910   40.2600   12.6300 N.am   89  MET89      -0.1963
     95  CA        25.8220   39.5020   13.7630 C.3    89  MET89       0.1736
     96  C         27.3440   39.4290   13.6600 C.2    89  MET89       0.2616
     97  O         27.8960   38.8490   12.7260 O.2    89  MET89      -0.2715
     98  CB        25.1870   38.1100   13.8420 C.3    89  MET89       0.0427
     99  CG        23.6550   38.1190   13.9110 C.3    89  MET89       0.0599
    100  SD        22.9510   39.0270   15.3050 S.3    89  MET89      -0.1393
    101  CE        23.5630   38.1030   16.7020 C.3    89  MET89       0.0692
    102  N         28.0170   40.0530   14.6110 N.am   90  GLU90      -0.1963
    103  CA        29.4360   40.3140   14.4760 C.3    90  GLU90       0.1733
    104  C         30.2830   39.0620   14.5820 C.2    90  GLU90       0.2616
    105  O         31.3910   39.0220   14.0470 O.2    90  GLU90      -0.2715
    106  CB        29.9030   41.3460   15.5020 C.3    90  GLU90       0.0429
    107  CG        31.3870   41.6180   15.4540 C.3    90  GLU90       0.1163
    108  CD        31.7700   42.5670   14.3190 C.2    90  GLU90       0.3649
    109  OE1       31.5780   43.7990   14.4820 O.co2  90  GLU90      -0.2457
    110  OE2       32.2750   42.0770   13.2760 O.co2  90  GLU90      -0.2457
    111  N         29.7900   38.0430   15.2790 N.am   91  ASN91      -0.1958
    112  CA        30.5990   36.8410   15.4340 C.3    91  ASN91       0.1819
    113  C         30.1810   35.7310   14.5030 C.2    91  ASN91       0.2622
    114  O         30.6820   34.6180   14.6000 O.2    91  ASN91      -0.2715
    115  CB        30.6480   36.3700   16.8860 C.3    91  ASN91       0.1195
    116  CG        31.7450   37.0590   17.6760 C.2    91  ASN91       0.2630
    117  OD1       32.8160   37.3560   17.1380 O.2    91  ASN91      -0.2716
    118  ND2       31.4980   37.2920   18.9620 N.am   91  ASN91      -0.0877
    119  N         29.2640   36.0460   13.5990 N.am   92  GLY92      -0.1940
    120  CA        28.9030   35.1230   12.5390 C.3    92  GLY92       0.2014
    121  C         28.2500   33.8450   13.0300 C.2    92  GLY92       0.2639
    122  O         27.5580   33.8330   14.0380 O.2    92  GLY92      -0.2714
    123  N         28.4770   32.7640   12.3060 N.am   93  SER93      -0.1949
    124  CA        27.7680   31.5200   12.5480 C.3    93  SER93       0.1924
    125  C         28.3100   30.7840   13.7750 C.2    93  SER93       0.2314
    126  O         29.5220   30.7750   14.0040 O.2    93  SER93      -0.2863
    127  CB        27.8660   30.6400   11.3020 C.3    93  SER93       0.2116
    128  OG        27.2280   29.4050   11.5150 O.3    93  SER93      -0.2180
    129  N         28.5070   27.5510   14.4600 N.3    95  VAL95      -0.1231
    130  CA        29.3960   26.4750   14.0820 C.3    95  VAL95       0.1692
    131  C         30.8300   26.9690   13.8200 C.2    95  VAL95       0.2592
    132  O         31.7920   26.3100   14.2120 O.2    95  VAL95      -0.2718
    133  CB        28.8250   25.6240   12.9050 C.3    95  VAL95       0.0266
    134  CG1       28.9390   26.3640   11.5830 C.3    95  VAL95       0.0020
    135  CG2       29.5250   24.2810   12.8400 C.3    95  VAL95       0.0020
    136  N         30.9720   28.1340   13.1900 N.am   96  ASP96      -0.1974
    137  CA        32.2960   28.7160   12.9380 C.3    96  ASP96       0.1709
    138  C         32.8830   29.2900   14.2280 C.2    96  ASP96       0.2293
    139  O         34.0190   28.9700   14.6030 O.2    96  ASP96      -0.2864
    140  CB        32.2500   29.8210   11.8710 C.3    96  ASP96       0.1436
    141  CG        31.8590   29.3100   10.4930 C.2    96  ASP96       0.3671
    142  OD1       32.0950   28.1270   10.1900 O.co2  96  ASP96      -0.2456
    143  OD2       31.3200   30.1060    9.6940 O.co2  96  ASP96      -0.2456
    144  N         24.8840   25.8080   12.3550 N.3   138  ALA138     -0.1231
    145  CA        25.2560   26.6740   11.2300 C.3   138  ALA138      0.1694
    146  C         24.2250   27.8090   11.0510 C.2   138  ALA138      0.2592
    147  O         24.5640   28.8750   10.5240 O.2   138  ALA138     -0.2718
    148  CB        25.4260   25.8690    9.9340 C.3   138  ALA138      0.0304
    149  N         22.9900   27.5790   11.5180 N.am  139  ASN139     -0.1974
    150  CA        21.9180   28.5720   11.4160 C.3   139  ASN139      0.1688
    151  C         21.6310   29.3260   12.7210 C.2   139  ASN139      0.2292
    152  O         20.5660   29.9290   12.9000 O.2   139  ASN139     -0.2864
    153  CB        20.6350   27.9620   10.8300 C.3   139  ASN139      0.1181
    154  CG        20.8200   27.4780    9.3950 C.2   139  ASN139      0.2629
    155  OD1       21.7010   27.9540    8.6750 O.2   139  ASN139     -0.2716
    156  ND2       19.9960   26.5210    8.9810 N.am  139  ASN139     -0.0877
    157  N         23.3030   32.4690   14.8350 N.3   141  LEU141     -0.1245
    158  CA        24.2880   33.5280   14.6970 C.3   141  LEU141      0.1561
    159  C         24.6540   34.1050   16.0640 C.2   141  LEU141      0.2260
    160  O         23.8430   34.1140   16.9820 O.2   141  LEU141     -0.2867
    161  CB        23.8130   34.6130   13.7210 C.3   141  LEU141      0.0270
    162  CG        23.5050   34.1420   12.3030 C.3   141  LEU141      0.0019
    163  CD1       23.1900   35.3110   11.3770 C.3   141  LEU141      0.0001
    164  CD2       24.6580   33.3230   11.7400 C.3   141  LEU141      0.0001
    165  N         18.4600   32.1450   12.9650 N.3   151  ALA151     -0.1231
    166  CA        18.5120   32.7600   11.6410 C.3   151  ALA151      0.1694
    167  C         18.0580   31.7980   10.5470 C.2   151  ALA151      0.2592
    168  O         17.6840   30.6570   10.8410 O.2   151  ALA151     -0.2718
    169  CB        19.9170   33.2820   11.3580 C.3   151  ALA151      0.0304
    170  N         18.0940   32.2500    9.2910 N.am  152  ASP152     -0.1974
    171  CA        17.8470   31.3620    8.1440 C.3   152  ASP152      0.1709
    172  C         16.4520   30.7100    8.1860 C.2   152  ASP152      0.2293
    173  O         16.3100   29.5190    8.4380 O.2   152  ASP152     -0.2864
    174  CB        18.9440   30.2870    8.0400 C.3   152  ASP152      0.1436
    175  CG        19.9130   30.5200    6.8650 C.2   152  ASP152      0.3671
    176  OD1       19.5430   30.2110    5.6990 O.co2 152  ASP152     -0.2456
    177  OD2       21.0600   30.9580    7.1120 O.co2 152  ASP152     -0.2456
@<TRIPOS>BOND
     1    28    27    2
     2    12    11    2
     3    27    26    1
     4    11    10    1
     5    13    14    1
     6    58    59    1
     7    30    29    1
     8    30    31    1
     9    26    29    1
    10    26    25    1
    11    63    65    1
    12    63    62    1
    13    10     9    1
    14    32    31    1
    15    32    33    1
    16    14    15    1
    17    14    17    1
    18    59    62    1
    19    59    60    1
    20    16    15    2
    21     9     3   am
    22    62    64    1
    23    34    35    1
    24    19    17    1
    25     1     2    1
    26    17    18    1
    27    60    61    2
    28     3     4    2
    29     3     2    1
    30    41    40   ar
    31    38    35    1
    32    38    39    1
    33    35    36    1
    34     2     5    1
    35    36    37    2
    36    40    39    1
    37    40    42   ar
    38     5     6    1
    39    22    23    2
    40    22    21    1
    41     6     8    1
    42     6     7    1
    43   176   175   ar
    44    21    24    1
    45    21    20    1
    46   175   177   ar
    47   175   174    1
    48    66    67    1
    49    72    70    1
    50    49    48    1
    51    49    50    1
    52   174   171    1
    53   171   172    1
    54   171   170    1
    55    43    44    1
    56   172   173    2
    57    67    70    1
    58    67    68    1
    59    48    47    1
    60    70    71    1
    61   155   154    2
    62    47    44    1
    63    69    68    2
    64   156   154   am
    65    44    45    1
    66   170   167   am
    67    68    73   am
    68   154   153    1
    69    90    88   ar
    70    90    92   ar
    71   143   141   ar
    72    45    46    2
    73    88    87   ar
    74   148   145    1
    75    93    92    1
    76   142   141   ar
    77    92    91   ar
    78   141   140    1
    79   147   146    2
    80   167   168    2
    81   167   166    1
    82    73    74    1
    83    87    86    1
    84    87    89   ar
    85   153   150    1
    86   146   145    1
    87   146   149   am
    88    86    83    1
    89    76    75    2
    90   145   144    1
    91    91    89   ar
    92   127   128    1
    93   127   124    1
    94   169   166    1
    95   163   162    1
    96   150   149    1
    97   150   151    1
    98    75    74    1
    99    75    82   am
   100    83    82    1
   101    83    84    1
   102   134   133    1
   103   166   165    1
   104    56    55    1
   105    74    77    1
   106   164   162    1
   107   140   137    1
   108   162   161    1
   109   123   124    1
   110   123   121   am
   111    54    53    2
   112   120   121    1
   113   120   119    1
   114   124   125    1
   115    94    84   am
   116    94    95    1
   117   151   152    2
   118    97    96    2
   119    55    57    1
   120    55    52    1
   121    84    85    2
   122   135   133    1
   123   133   130    1
   124    77    78    1
   125   137   136    1
   126   137   138    1
   127   121   122    2
   128    53    52    1
   129   136   131   am
   130   110   108   ar
   131   119   113   am
   132    96    95    1
   133    96   102   am
   134   161   158    1
   135    52    51    1
   136    95    98    1
   137   125   126    2
   138   131   130    1
   139   131   132    2
   140    98    99    1
   141    99   100    1
   142   105   104    2
   143   130   129    1
   144   138   139    2
   145    78    79    1
   146   108   109   ar
   147   108   107    1
   148   103   104    1
   149   103   102    1
   150   103   106    1
   151   113   114    2
   152   113   112    1
   153   104   111   am
   154   158   157    1
   155   158   159    1
   156    80    79   ar
   157   111   112    1
   158   100   101    1
   159    79    81   ar
   160   112   115    1
   161   107   106    1
   162   159   160    2
   163   115   116    1
   164   117   116    2
   165   116   118   am
