@<TRIPOS>MOLECULE
tmp/3ac8A00.pdb
 170 158 0 0 0
SMALL
GASTEIGER

@<TRIPOS>ATOM
      1  N         -9.4630   -1.2200    2.6650 N.3    21  LEU21      -0.1231
      2  CA        -9.7330   -0.2040    3.6680 C.3    21  LEU21       0.1693
      3  C         -9.6350    1.1870    3.0720 C.2    21  LEU21       0.2592
      4  O        -10.4700    2.0480    3.3530 O.2    21  LEU21      -0.2718
      5  CB        -8.7750   -0.3550    4.8520 C.3    21  LEU21       0.0284
      6  CG        -8.6780   -1.7760    5.4150 C.3    21  LEU21       0.0019
      7  CD1       -7.5540   -1.9040    6.4340 C.3    21  LEU21       0.0001
      8  CD2      -10.0050   -2.2270    6.0060 C.3    21  LEU21       0.0001
      9  N         -8.6210    1.3990    2.2350 N.am   22  GLY22      -0.1957
     10  CA        -8.4140    2.6920    1.5800 C.3    22  GLY22       0.1869
     11  C         -7.8480    2.5850    0.1750 C.2    22  GLY22       0.2309
     12  O         -7.2900    1.5550   -0.2090 O.2    22  GLY22      -0.2863
     13  N         -4.9260    0.0110    0.5060 N.3    29  VAL29      -0.1245
     14  CA        -4.7030   -0.6240    1.7970 C.3    29  VAL29       0.1561
     15  C         -5.8100   -1.6380    2.0780 C.2    29  VAL29       0.2260
     16  O         -6.9900   -1.2990    2.0600 O.2    29  VAL29      -0.2867
     17  CB        -4.6660    0.4130    2.9380 C.3    29  VAL29       0.0252
     18  CG1       -4.2310   -0.2510    4.2420 C.3    29  VAL29       0.0019
     19  CG2       -3.7360    1.5630    2.5820 C.3    29  VAL29       0.0019
     20  N         -2.4470   -6.1890    7.5970 N.3    41  ALA41      -0.1245
     21  CA        -2.6910   -5.1000    6.6700 C.3    41  ALA41       0.1562
     22  C         -1.7680   -5.2710    5.4620 C.2    41  ALA41       0.2260
     23  O         -0.6090   -5.6370    5.6140 O.2    41  ALA41      -0.2867
     24  CB        -2.4510   -3.7560    7.3590 C.3    41  ALA41       0.0290
     25  N         -0.3850   -3.1130    2.1920 N.3    43  LYS43      -0.1245
     26  CA        -0.2250   -1.9620    1.3050 C.3    43  LYS43       0.1561
     27  C          0.2430   -2.4330   -0.0610 C.2    43  LYS43       0.2260
     28  O          1.2730   -3.0970   -0.1640 O.2    43  LYS43      -0.2867
     29  CB         0.8100   -0.9840    1.8610 C.3    43  LYS43       0.0271
     30  CG         0.2540    0.1220    2.7270 C.3    43  LYS43       0.0035
     31  CD         1.2330    1.3000    2.7780 C.3    43  LYS43       0.0206
     32  CE         1.0570    2.1330    4.0390 C.3    43  LYS43       0.1093
     33  NZ        -0.2880    2.7580    4.1070 N.3    43  LYS43      -0.1314
     34  N          9.7430    2.2870    2.3920 N.3    58  GLU58      -0.1245
     35  CA         8.9490    2.3320    3.6230 C.3    58  GLU58       0.1567
     36  C          9.2290    1.0790    4.4610 C.2    58  GLU58       0.2260
     37  O          9.4350    1.1580    5.6700 O.2    58  GLU58      -0.2867
     38  CB         7.4470    2.4560    3.3050 C.3    58  GLU58       0.0388
     39  CG         6.6300    3.1370    4.4030 C.3    58  GLU58       0.1160
     40  CD         5.1290    3.1790    4.1210 C.2    58  GLU58       0.3649
     41  OE1        4.7090    3.7600    3.1000 O.co2  58  GLU58      -0.2457
     42  OE2        4.3570    2.6430    4.9430 O.co2  58  GLU58      -0.2457
     43  N         10.9720    0.6550    8.1870 N.3    62  MET62      -0.1245
     44  CA        10.2930   -0.0690    9.2610 C.3    62  MET62       0.1570
     45  C         11.1550   -1.2040    9.8320 C.2    62  MET62       0.2261
     46  O         11.1570   -1.4360   11.0430 O.2    62  MET62      -0.2867
     47  CB         8.9230   -0.5840    8.8020 C.3    62  MET62       0.0387
     48  CG         7.9750    0.5220    8.3210 C.3    62  MET62       0.0595
     49  SD         6.3070   -0.0240    7.8790 S.3    62  MET62      -0.1393
     50  CE         5.7660   -0.7280    9.4320 C.3    62  MET62       0.0692
     51  N          4.1330    0.2720   14.5160 N.3    71  VAL71      -0.1245
     52  CA         3.5000   -0.7850   13.7320 C.3    71  VAL71       0.1561
     53  C          4.5440   -1.7110   13.1040 C.2    71  VAL71       0.2260
     54  O          5.4470   -1.2580   12.3980 O.2    71  VAL71      -0.2867
     55  CB         2.5160   -0.2240   12.6730 C.3    71  VAL71       0.0252
     56  CG1        2.1070   -1.3090   11.6860 C.3    71  VAL71       0.0019
     57  CG2        1.2830    0.3520   13.3600 C.3    71  VAL71       0.0019
     58  N          3.5650   -4.3020    0.6070 N.3    84  ILE84      -0.1245
     59  CA         4.1330   -4.1890    1.9460 C.3    84  ILE84       0.1561
     60  C          3.1020   -4.7160    2.9380 C.2    84  ILE84       0.2260
     61  O          1.9480   -4.2750    2.9410 O.2    84  ILE84      -0.2867
     62  CB         4.4850   -2.7300    2.3040 C.3    84  ILE84       0.0252
     63  CG1        5.6210   -2.2280    1.4160 C.3    84  ILE84       0.0019
     64  CG2        4.8780   -2.6110    3.7700 C.3    84  ILE84       0.0019
     65  CD1        5.8640   -0.7560    1.5330 C.3    84  ILE84       0.0001
     66  N          1.8720   -5.9810    7.1420 N.3    86  THR86      -0.1203
     67  CA         2.2720   -5.7200    8.5270 C.3    86  THR86       0.1994
     68  C          1.2930   -6.3630    9.5270 C.2    86  THR86       0.2621
     69  O          0.2320   -6.8090    9.1270 O.2    86  THR86      -0.2717
     70  CB         2.2280   -4.2110    8.7590 C.3    86  THR86       0.1784
     71  OG1        0.9010   -3.8080    9.0420 O.3    86  THR86      -0.2211
     72  CG2        2.7230   -3.3860    7.5500 C.3    86  THR86       0.0376
     73  N          1.6360   -6.2870   10.8220 N.am   87  GLU87      -0.1919
     74  CA         0.6630   -6.6370   11.8350 C.3    87  GLU87       0.1949
     75  C         -0.4990   -5.5820   11.7200 C.2    87  GLU87       0.2659
     76  O         -0.2600   -4.3980   11.4420 O.2    87  GLU87      -0.2711
     77  CB         1.2470   -6.6660   13.2460 C.2    87  GLU87       0.0111
     78  CG         1.0410   -5.4760   14.1340 C.2    87  GLU87       0.0838
     79  CD         1.5650   -5.6350   15.5610 C.2    87  GLU87       0.3877
     80  OE1        2.5260   -6.3600   15.8070 O.co2  87  GLU87      -0.2406
     81  OE2        1.0260   -5.0110   16.4600 O.co2  87  GLU87      -0.2406
     82  N         -1.7620   -6.0040   11.9070 N.am   88  TYR88      -0.1957
     83  CA        -2.9760   -5.2440   11.6000 C.3    88  TYR88       0.1771
     84  C         -3.5670   -4.5710   12.8480 C.2    88  TYR88       0.2619
     85  O         -3.5530   -5.1530   13.9280 O.2    88  TYR88      -0.2715
     86  CB        -4.0220   -6.1680   10.9780 C.3    88  TYR88       0.0574
     87  CG        -5.2950   -5.4380   10.6260 C.ar   88  TYR88      -0.0198
     88  CD1       -5.3100   -4.5040    9.6010 C.ar   88  TYR88      -0.0009
     89  CD2       -6.4690   -5.6580   11.3320 C.ar   88  TYR88      -0.0009
     90  CE1       -6.4460   -3.8210    9.2830 C.ar   88  TYR88       0.0417
     91  CE2       -7.6260   -4.9710   11.0130 C.ar   88  TYR88       0.0417
     92  CZ        -7.6040   -4.0550    9.9860 C.ar   88  TYR88       0.1957
     93  OH        -8.7360   -3.3550    9.6400 O.3    88  TYR88      -0.2866
     94  N         -4.0950   -3.3570   12.6910 N.am   89  MET89      -0.1963
     95  CA        -4.6950   -2.6190   13.8120 C.3    89  MET89       0.1736
     96  C         -6.2120   -2.4490   13.6380 C.2    89  MET89       0.2616
     97  O         -6.6640   -1.7170   12.7550 O.2    89  MET89      -0.2715
     98  CB        -4.0320   -1.2400   13.9830 C.3    89  MET89       0.0427
     99  CG        -2.5120   -1.2420   13.8730 C.3    89  MET89       0.0599
    100  SD        -1.6890   -1.8350   15.3620 S.3    89  MET89      -0.1393
    101  CE        -2.3550   -0.7210   16.5950 C.3    89  MET89       0.0692
    102  N         -6.9840   -3.0950   14.5070 N.am   90  GLU90      -0.1963
    103  CA        -8.4260   -3.2620   14.3130 C.3    90  GLU90       0.1733
    104  C         -9.2860   -2.0020   14.4790 C.2    90  GLU90       0.2616
    105  O        -10.4090   -1.9410   13.9620 O.2    90  GLU90      -0.2715
    106  CB        -8.9560   -4.4040   15.1890 C.3    90  GLU90       0.0429
    107  CG       -10.4660   -4.4140   15.3860 C.3    90  GLU90       0.1163
    108  CD       -11.2420   -4.6590   14.1010 C.2    90  GLU90       0.3649
    109  OE1      -10.7060   -5.3210   13.1900 O.co2  90  GLU90      -0.2457
    110  OE2      -12.3990   -4.1910   14.0060 O.co2  90  GLU90      -0.2457
    111  N         -8.7720   -0.9990   15.1870 N.am   91  ASN91      -0.1958
    112  CA        -9.5370    0.2230   15.3950 C.3    91  ASN91       0.1819
    113  C         -9.1200    1.3820   14.4950 C.2    91  ASN91       0.2622
    114  O         -9.5140    2.5290   14.7230 O.2    91  ASN91      -0.2715
    115  CB        -9.5420    0.6350   16.8730 C.3    91  ASN91       0.1195
    116  CG       -10.5260   -0.1860   17.7110 C.2    91  ASN91       0.2630
    117  OD1      -11.6390   -0.4760   17.2770 O.2    91  ASN91      -0.2716
    118  ND2      -10.1110   -0.5600   18.9150 N.am   91  ASN91      -0.0877
    119  N         -8.3260    1.0810   13.4710 N.am   92  GLY92      -0.1940
    120  CA        -7.9600    2.0790   12.4560 C.3    92  GLY92       0.2014
    121  C         -7.1440    3.2520   12.9660 C.2    92  GLY92       0.2639
    122  O         -6.3980    3.1210   13.9400 O.2    92  GLY92      -0.2714
    123  N         -7.2730    4.4010   12.2980 N.am   93  SER93      -0.1949
    124  CA        -6.5190    5.5980   12.6740 C.3    93  SER93       0.1924
    125  C         -7.0920    6.2900   13.9110 C.2    93  SER93       0.2314
    126  O         -8.3080    6.3110   14.1140 O.2    93  SER93      -0.2863
    127  CB        -6.4300    6.5870   11.5050 C.3    93  SER93       0.2116
    128  OG        -7.2500    7.7270   11.7200 O.3    93  SER93      -0.2180
    129  N         -9.8760    8.9840   13.2830 N.3    96  ASP96      -0.1239
    130  CA       -11.1750    8.3590   13.0090 C.3    96  ASP96       0.1674
    131  C        -11.8100    7.7040   14.2450 C.2    96  ASP96       0.2266
    132  O        -13.0080    7.8680   14.4930 O.2    96  ASP96      -0.2867
    133  CB       -11.0760    7.3430   11.8650 C.3    96  ASP96       0.1410
    134  CG       -10.8260    7.9990   10.5250 C.2    96  ASP96       0.3668
    135  OD1      -11.3320    9.1200   10.3100 O.co2  96  ASP96      -0.2456
    136  OD2      -10.1300    7.3910    9.6860 O.co2  96  ASP96      -0.2456
    137  N         -3.8510   11.2380   12.3280 N.3   138  ALA138     -0.1231
    138  CA        -4.1350   10.4010   11.1600 C.3   138  ALA138      0.1694
    139  C         -3.0870    9.3040   10.9650 C.2   138  ALA138      0.2592
    140  O         -3.3310    8.3360   10.2470 O.2   138  ALA138     -0.2718
    141  CB        -4.2430   11.2530    9.8920 C.3   138  ALA138      0.0304
    142  N         -1.9190    9.4640   11.5880 N.am  139  ASN139     -0.1974
    143  CA        -0.8380    8.4960   11.4200 C.3   139  ASN139      0.1688
    144  C         -0.6000    7.6560   12.6710 C.2   139  ASN139      0.2292
    145  O          0.3930    6.9390   12.7830 O.2   139  ASN139     -0.2864
    146  CB         0.4420    9.1770   10.9430 C.3   139  ASN139      0.1181
    147  CG         0.3710    9.5850    9.4780 C.2   139  ASN139      0.2629
    148  OD1       -0.2920    8.9310    8.6730 O.2   139  ASN139     -0.2716
    149  ND2        1.0530   10.6690    9.1270 N.am  139  ASN139     -0.0877
    150  N         -2.3320    4.6050   14.7940 N.3   141  LEU141     -0.1245
    151  CA        -3.3050    3.5350   14.6420 C.3   141  LEU141      0.1561
    152  C         -3.6840    2.9910   16.0090 C.2   141  LEU141      0.2260
    153  O         -2.9250    3.1300   16.9730 O.2   141  LEU141     -0.2867
    154  CB        -2.7540    2.4100   13.7550 C.3   141  LEU141      0.0270
    155  CG        -2.5250    2.7750   12.2910 C.3   141  LEU141      0.0019
    156  CD1       -2.0120    1.5820   11.5070 C.3   141  LEU141      0.0001
    157  CD2       -3.7950    3.3360   11.6580 C.3   141  LEU141      0.0001
    158  N          2.6900    4.9060   12.8060 N.3   151  ALA151     -0.1231
    159  CA         2.6200    4.2600   11.4950 C.3   151  ALA151      0.1694
    160  C          2.9630    5.2630   10.4010 C.2   151  ALA151      0.2592
    161  O          3.2310    6.4340   10.6920 O.2   151  ALA151     -0.2718
    162  CB         1.2260    3.6860   11.2680 C.3   151  ALA151      0.0304
    163  N          2.9240    4.8050    9.1510 N.am  152  ASP152     -0.1974
    164  CA         3.2370    5.6450    7.9880 C.3   152  ASP152      0.1709
    165  C          4.6590    6.2270    8.0530 C.2   152  ASP152      0.2293
    166  O          4.8480    7.4210    8.2720 O.2   152  ASP152     -0.2864
    167  CB         2.1870    6.7500    7.7930 C.3   152  ASP152      0.1436
    168  CG         1.0320    6.3230    6.8760 C.2   152  ASP152      0.3671
    169  OD1        0.9390    5.1310    6.5280 O.co2 152  ASP152     -0.2456
    170  OD2        0.2120    7.1870    6.4950 O.co2 152  ASP152     -0.2456
@<TRIPOS>BOND
     1    12    11    2
     2    28    27    2
     3    27    26    1
     4    11    10    1
     5    13    14    1
     6    58    59    1
     7    26    29    1
     8    26    25    1
     9    63    65    1
    10    63    62    1
    11    10     9    1
    12    14    15    1
    13    14    17    1
    14    29    30    1
    15    59    62    1
    16    59    60    1
    17    16    15    2
    18     9     3   am
    19    62    64    1
    20    34    35    1
    21    19    17    1
    22     1     2    1
    23    30    31    1
    24    31    32    1
    25    60    61    2
    26    17    18    1
    27     3     4    2
    28     3     2    1
    29    41    40   ar
    30    38    35    1
    31    38    39    1
    32    35    36    1
    33     2     5    1
    34    32    33    1
    35    40    39    1
    36    40    42   ar
    37    36    37    2
    38     5     6    1
    39     6     8    1
    40     6     7    1
    41    22    23    2
    42    22    21    1
    43   170   168   ar
    44   169   168   ar
    45    21    24    1
    46    21    20    1
    47   168   167    1
    48    66    67    1
    49    72    70    1
    50   167   164    1
    51    49    48    1
    52    49    50    1
    53   164   165    1
    54   164   163    1
    55   165   166    2
    56    43    44    1
    57    48    47    1
    58    67    70    1
    59    67    68    1
    60   148   147    2
    61    70    71    1
    62    47    44    1
    63   149   147   am
    64    69    68    2
    65   163   160   am
    66    44    45    1
    67    90    88   ar
    68    90    92   ar
    69   147   146    1
    70    68    73   am
    71    88    87   ar
    72    93    92    1
    73   136   134   ar
    74    45    46    2
    75   141   138    1
    76    92    91   ar
    77   140   139    2
    78   135   134   ar
    79   160   161    2
    80   160   159    1
    81   134   133    1
    82    87    86    1
    83    87    89   ar
    84    73    74    1
    85   146   143    1
    86   139   138    1
    87   139   142   am
    88    86    83    1
    89    91    89   ar
    90   138   137    1
    91   162   159    1
    92   143   142    1
    93   143   144    1
    94    76    75    2
    95   159   158    1
    96   127   128    1
    97   127   124    1
    98   156   155    1
    99    83    82    1
   100    83    84    1
   101   157   155    1
   102    56    55    1
   103    75    74    1
   104    75    82   am
   105    74    77    1
   106   133   130    1
   107   155   154    1
   108   123   124    1
   109   123   121   am
   110    54    53    2
   111   120   121    1
   112   120   119    1
   113   144   145    2
   114    55    57    1
   115    55    52    1
   116   124   125    1
   117    94    84   am
   118    94    95    1
   119    97    96    2
   120    84    85    2
   121   121   122    2
   122   130   129    1
   123   130   131    1
   124    53    52    1
   125   109   108   ar
   126    77    78    2
   127   119   113   am
   128    96    95    1
   129    96   102   am
   130    52    51    1
   131   154   151    1
   132    95    98    1
   133    99    98    1
   134    99   100    1
   135   125   126    2
   136   105   104    2
   137   110   108   ar
   138   108   107    1
   139    78    79    1
   140   131   132    2
   141   103   104    1
   142   103   102    1
   143   103   106    1
   144   104   111   am
   145   113   114    2
   146   113   112    1
   147   151   150    1
   148   151   152    1
   149   111   112    1
   150   106   107    1
   151   100   101    1
   152   112   115    1
   153    79    80   ar
   154    79    81   ar
   155   152   153    2
   156   115   116    1
   157   117   116    2
   158   116   118   am
