@<TRIPOS>MOLECULE
tmp/3ac9B01.pdb
 103 97 0 0 0
SMALL
GASTEIGER

@<TRIPOS>ATOM
      1  N        -16.9430   20.3800   83.2310 N.3    15  TRP15      -0.1227
      2  CA       -17.3160   19.6110   82.0420 C.3    15  TRP15       0.1737
      3  C        -16.1570   18.8490   81.4170 C.2    15  TRP15       0.2595
      4  O        -16.3400   17.7450   80.8970 O.2    15  TRP15      -0.2718
      5  CB       -17.9250   20.5290   80.9860 C.3    15  TRP15       0.0564
      6  CG       -19.0760   21.3370   81.4840 C.ar   15  TRP15       0.0003
      7  CD1      -19.0690   22.6650   81.8030 C.ar   15  TRP15       0.0946
      8  CD2      -20.4080   20.8740   81.7200 C.ar   15  TRP15       0.0152
      9  NE1      -20.3160   23.0600   82.2150 N.ar   15  TRP15      -0.2442
     10  CE2      -21.1570   21.9790   82.1770 C.ar   15  TRP15       0.0810
     11  CE3      -21.0410   19.6350   81.5870 C.ar   15  TRP15       0.0012
     12  CZ2      -22.5070   21.8810   82.5040 C.ar   15  TRP15       0.0191
     13  CZ3      -22.3830   19.5400   81.9100 C.ar   15  TRP15       0.0001
     14  CH2      -23.1020   20.6570   82.3630 C.ar   15  TRP15       0.0015
     15  N        -14.9730   19.4540   81.4600 N.am   16  VAL16      -0.1980
     16  CA       -13.7930   18.9130   80.7950 C.3    16  VAL16       0.1595
     17  C        -12.5960   18.8820   81.7380 C.2    16  VAL16       0.2287
     18  O        -12.4840   19.7230   82.6290 O.2    16  VAL16      -0.2864
     19  CB       -13.4170   19.7710   79.5680 C.3    16  VAL16       0.0276
     20  CG1      -12.4280   19.0320   78.6840 C.3    16  VAL16       0.0022
     21  CG2      -14.6680   20.1510   78.7790 C.3    16  VAL16       0.0022
     22  N        -13.7300   14.5680   78.7520 N.3    38  ARG38      -0.1245
     23  CA       -14.9380   15.1170   79.3610 C.3    38  ARG38       0.1563
     24  C        -15.0900   14.5300   80.7600 C.2    38  ARG38       0.2260
     25  O        -15.0650   13.3090   80.9360 O.2    38  ARG38      -0.2867
     26  CB       -16.1790   14.8100   78.5150 C.3    38  ARG38       0.0307
     27  CG       -16.1810   15.4730   77.1440 C.3    38  ARG38       0.0489
     28  CD       -17.5490   15.3880   76.4930 C.3    38  ARG38       0.2205
     29  NE       -17.5820   16.0380   75.1830 N.pl3  38  ARG38      -0.0865
     30  CZ       -17.9730   17.2940   74.9760 C.cat  38  ARG38       0.5346
     31  NH1      -18.3630   18.0510   75.9950 N.pl3  38  ARG38       0.1354
     32  NH2      -17.9740   17.7950   73.7460 N.pl3  38  ARG38       0.1354
     33  N        -25.3990   25.9600   64.4100 N.3    69  GLN69      -0.1245
     34  CA       -25.4940   26.5440   65.7390 C.3    69  GLN69       0.1566
     35  C        -24.1940   27.2130   66.1660 C.2    69  GLN69       0.2260
     36  O        -23.1150   26.8740   65.6710 O.2    69  GLN69      -0.2867
     37  CB       -25.8800   25.4680   66.7450 C.3    69  GLN69       0.0367
     38  CG       -24.8210   24.4110   66.9450 C.3    69  GLN69       0.0905
     39  CD       -25.3780   23.1740   67.6120 C.2    69  GLN69       0.2608
     40  OE1      -25.3260   22.0780   67.0510 O.2    69  GLN69      -0.2717
     41  NE2      -25.9330   23.3440   68.8040 N.am   69  GLN69      -0.0878
     42  N        -21.0850   27.7990   68.3130 N.3    71  ARG71      -0.1245
     43  CA       -20.2400   26.9170   69.0960 C.3    71  ARG71       0.1563
     44  C        -19.1980   27.7410   69.8320 C.2    71  ARG71       0.2260
     45  O        -18.1930   28.1400   69.2450 O.2    71  ARG71      -0.2867
     46  CB       -19.5620   25.8810   68.1990 C.3    71  ARG71       0.0307
     47  CG       -20.5050   24.8140   67.6620 C.3    71  ARG71       0.0489
     48  CD       -21.1080   24.0180   68.8190 C.3    71  ARG71       0.2205
     49  NE       -21.6610   22.7360   68.3980 N.pl3  71  ARG71      -0.0865
     50  CZ       -22.2790   21.8880   69.2140 C.cat  71  ARG71       0.5346
     51  NH1      -22.4370   22.1940   70.4910 N.pl3  71  ARG71       0.1354
     52  NH2      -22.7490   20.7400   68.7500 N.pl3  71  ARG71       0.1354
     53  N        -16.6620   27.2540   71.6790 N.3    73  PRO73      -0.2116
     54  CA       -15.2370   26.9810   71.4600 C.3    73  PRO73       0.1372
     55  C        -14.7000   27.5670   70.1500 C.2    73  PRO73       0.2244
     56  O        -13.5390   27.9840   70.1040 O.2    73  PRO73      -0.2868
     57  CB       -15.1810   25.4540   71.4400 C.3    73  PRO73       0.0268
     58  CG       -16.3220   25.0380   72.3060 C.3    73  PRO73       0.0207
     59  CD       -17.4090   26.0230   71.9950 C.3    73  PRO73       0.0892
     60  N        -26.4140   15.7340   66.6110 N.3    83  ALA83      -0.1231
     61  CA       -25.5920   14.9610   67.5340 C.3    83  ALA83       0.1694
     62  C        -25.8950   15.3180   68.9770 C.2    83  ALA83       0.2593
     63  O        -26.2850   16.4440   69.2760 O.2    83  ALA83      -0.2718
     64  CB       -24.1120   15.1900   67.2420 C.3    83  ALA83       0.0304
     65  N        -25.6950   14.3540   69.8700 N.am   84  GLY84      -0.1942
     66  CA       -25.8790   14.5730   71.2940 C.3    84  GLY84       0.2014
     67  C        -25.4020   13.3820   72.1040 C.2    84  GLY84       0.2638
     68  O        -25.0110   12.3590   71.5400 O.2    84  GLY84      -0.2714
     69  N        -25.4410   13.5040   73.4290 N.am   85  LEU85      -0.1977
     70  CA       -24.9690   12.4290   74.2990 C.3    85  LEU85       0.1596
     71  C        -25.9370   11.2500   74.3970 C.2    85  LEU85       0.2287
     72  O        -27.1410   11.3970   74.1730 O.2    85  LEU85      -0.2864
     73  CB       -24.6330   12.9700   75.6860 C.3    85  LEU85       0.0297
     74  CG       -23.5860   14.0840   75.6470 C.3    85  LEU85       0.0022
     75  CD1      -23.0750   14.3730   77.0350 C.3    85  LEU85       0.0001
     76  CD2      -22.4370   13.7160   74.7190 C.3    85  LEU85       0.0001
     77  N        -32.2020   12.0920   69.5500 N.3    99  GLU99      -0.1245
     78  CA       -31.4990   13.3390   69.2700 C.3    99  GLU99       0.1567
     79  C        -31.9500   13.9710   67.9400 C.2    99  GLU99       0.2260
     80  O        -32.1000   15.1920   67.8320 O.2    99  GLU99      -0.2867
     81  CB       -29.9930   13.0920   69.2580 C.3    99  GLU99       0.0388
     82  CG       -29.1770   14.3520   69.3060 C.3    99  GLU99       0.1160
     83  CD       -29.3650   15.1120   70.5970 C.2    99  GLU99       0.3649
     84  OE1      -29.5820   16.3410   70.5320 O.co2  99  GLU99      -0.2457
     85  OE2      -29.2960   14.4800   71.6720 O.co2  99  GLU99      -0.2457
     86  N        -33.6130   17.8480   67.9090 N.3   103  GLU103     -0.1245
     87  CA       -32.9790   18.9500   67.1920 C.3   103  GLU103      0.1567
     88  C        -33.6720   19.3300   65.8740 C.2   103  GLU103      0.2260
     89  O        -33.6990   20.5030   65.5080 O.2   103  GLU103     -0.2867
     90  CB       -31.4900   18.6450   66.9500 C.3   103  GLU103      0.0388
     91  CG       -30.6980   18.4140   68.2330 C.3   103  GLU103      0.1160
     92  CD       -29.1880   18.4200   68.0240 C.2   103  GLU103      0.3649
     93  OE1      -28.4460   18.5570   69.0150 O.co2 103  GLU103     -0.2457
     94  OE2      -28.7330   18.3010   66.8760 O.co2 103  GLU103     -0.2457
     95  N        -30.2570   25.8450   73.9570 N.3   153  GLU153     -0.1245
     96  CA       -29.9090   25.2660   72.6650 C.3   153  GLU153      0.1567
     97  C        -30.6680   25.9730   71.5510 C.2   153  GLU153      0.2260
     98  O        -31.9010   25.9320   71.4950 O.2   153  GLU153     -0.2867
     99  CB       -30.1810   23.7600   72.6440 C.3   153  GLU153      0.0388
    100  CG       -29.4210   22.9880   73.7240 C.3   153  GLU153      0.1160
    101  CD       -29.7300   21.4960   73.7160 C.2   153  GLU153      0.3649
    102  OE1      -28.8310   20.7000   74.0790 O.co2 153  GLU153     -0.2457
    103  OE2      -30.8670   21.1210   73.3360 O.co2 153  GLU153     -0.2457
@<TRIPOS>BOND
     1    33    34    1
     2    89    88    2
     3    36    35    2
     4    34    35    1
     5    34    37    1
     6    88    87    1
     7    60    61    1
     8    37    38    1
     9    94    92   ar
    10    38    39    1
    11    90    87    1
    12    90    91    1
    13    40    39    2
    14    87    86    1
    15    64    61    1
    16    61    62    1
    17    39    41   am
    18    47    46    1
    19    47    48    1
    20    80    79    2
    21    79    78    1
    22    92    91    1
    23    92    93   ar
    24    46    43    1
    25    42    43    1
    26    49    48    1
    27    49    50    2
    28    52    50    1
    29    62    63    2
    30    62    65   am
    31    43    44    1
    32    50    51    1
    33    45    44    2
    34    81    78    1
    35    81    82    1
    36    78    77    1
    37    82    83    1
    38    65    66    1
    39    56    55    2
    40    55    54    1
    41    84    83   ar
    42    83    85   ar
    43    66    67    1
    44    57    54    1
    45    57    58    1
    46    54    53    1
    47    98    97    2
    48    68    67    2
    49    97    96    1
    50    53    59    1
    51    59    58    1
    52    67    69   am
    53    99    96    1
    54    99   100    1
    55    96    95    1
    56   103   101   ar
    57    69    70    1
    58   101   100    1
    59   101   102   ar
    60    32    30    1
    61    72    71    2
    62    70    71    1
    63    70    73    1
    64    76    74    1
    65    30    29    2
    66    30    31    1
    67    29    28    1
    68    74    73    1
    69    74    75    1
    70    28    27    1
    71    27    26    1
    72    26    23    1
    73    20    19    1
    74    22    23    1
    75    21    19    1
    76    23    24    1
    77    19    16    1
    78    24    25    2
    79    16    15    1
    80    16    17    1
    81     4     3    2
    82     5     6    1
    83     5     2    1
    84     3    15   am
    85     3     2    1
    86     6     8   ar
    87     6     7   ar
    88    11     8   ar
    89    11    13   ar
    90     8    10   ar
    91    17    18    2
    92     7     9   ar
    93    13    14   ar
    94     2     1    1
    95    10     9   ar
    96    10    12   ar
    97    14    12   ar
