@<TRIPOS>MOLECULE
tmp/3acaB01.pdb
 96 90 0 0 0
SMALL
GASTEIGER

@<TRIPOS>ATOM
      1  N        -16.9830   20.2480   83.3430 N.3    15  TRP15      -0.1227
      2  CA       -17.3300   19.5460   82.1110 C.3    15  TRP15       0.1737
      3  C        -16.1250   18.8780   81.4560 C.2    15  TRP15       0.2595
      4  O        -16.2390   17.7890   80.8940 O.2    15  TRP15      -0.2718
      5  CB       -17.9910   20.5030   81.1170 C.3    15  TRP15       0.0564
      6  CG       -19.2570   21.1190   81.6220 C.ar   15  TRP15       0.0003
      7  CD1      -19.4000   22.3520   82.1890 C.ar   15  TRP15       0.0946
      8  CD2      -20.5630   20.5310   81.6060 C.ar   15  TRP15       0.0152
      9  NE1      -20.7140   22.5680   82.5260 N.ar   15  TRP15      -0.2442
     10  CE2      -21.4480   21.4650   82.1790 C.ar   15  TRP15       0.0810
     11  CE3      -21.0690   19.3050   81.1630 C.ar   15  TRP15       0.0012
     12  CZ2      -22.8110   21.2120   82.3210 C.ar   15  TRP15       0.0191
     13  CZ3      -22.4230   19.0560   81.3050 C.ar   15  TRP15       0.0001
     14  CH2      -23.2780   20.0050   81.8790 C.ar   15  TRP15       0.0015
     15  N        -14.9730   19.5370   81.5240 N.am   16  VAL16      -0.1980
     16  CA       -13.7740   19.0430   80.8570 C.3    16  VAL16       0.1595
     17  C        -12.5640   19.0710   81.7840 C.2    16  VAL16       0.2287
     18  O        -12.4310   19.9670   82.6180 O.2    16  VAL16      -0.2864
     19  CB       -13.4570   19.8720   79.5940 C.3    16  VAL16       0.0276
     20  CG1      -12.2460   19.3030   78.8710 C.3    16  VAL16       0.0022
     21  CG2      -14.6650   19.9170   78.6700 C.3    16  VAL16       0.0022
     22  N        -13.6770   14.3510   79.0880 N.3    38  ARG38      -0.1245
     23  CA       -14.8680   14.9260   79.6930 C.3    38  ARG38       0.1563
     24  C        -15.0490   14.3500   81.0900 C.2    38  ARG38       0.2260
     25  O        -14.9060   13.1450   81.2960 O.2    38  ARG38      -0.2867
     26  CB       -16.1030   14.6670   78.8290 C.3    38  ARG38       0.0307
     27  CG       -16.0660   15.3880   77.4940 C.3    38  ARG38       0.0489
     28  CD       -17.4500   15.5210   76.8890 C.3    38  ARG38       0.2205
     29  NE       -17.4650   16.4880   75.7960 N.pl3  38  ARG38      -0.0865
     30  CZ       -17.6080   17.7990   75.9620 C.cat  38  ARG38       0.5346
     31  NH1      -17.7500   18.3040   77.1810 N.pl3  38  ARG38       0.1354
     32  NH2      -17.6080   18.6080   74.9110 N.pl3  38  ARG38       0.1354
     33  N        -25.5160   25.7050   64.4770 N.3    69  GLN69      -0.1245
     34  CA       -25.5990   26.2940   65.8070 C.3    69  GLN69       0.1566
     35  C        -24.3000   26.9760   66.2080 C.2    69  GLN69       0.2260
     36  O        -23.2300   26.6600   65.6860 O.2    69  GLN69      -0.2867
     37  CB       -25.9560   25.2220   66.8370 C.3    69  GLN69       0.0367
     38  CG       -24.9470   24.0890   66.9080 C.3    69  GLN69       0.0905
     39  CD       -25.4740   22.8850   67.6610 C.2    69  GLN69       0.2608
     40  OE1      -25.5350   21.7800   67.1200 O.2    69  GLN69      -0.2717
     41  NE2      -25.8630   23.0930   68.9140 N.am   69  GLN69      -0.0878
     42  N        -21.1780   27.5190   68.3980 N.3    71  ARG71      -0.1245
     43  CA       -20.3350   26.6850   69.2440 C.3    71  ARG71       0.1563
     44  C        -19.2730   27.5380   69.9260 C.2    71  ARG71       0.2260
     45  O        -18.2970   27.9400   69.2960 O.2    71  ARG71      -0.2867
     46  CB       -19.6720   25.5790   68.4230 C.3    71  ARG71       0.0307
     47  CG       -20.6380   24.5490   67.8560 C.3    71  ARG71       0.0489
     48  CD       -21.3050   23.7400   68.9600 C.3    71  ARG71       0.2205
     49  NE       -21.8380   22.4740   68.4620 N.pl3  71  ARG71      -0.0865
     50  CZ       -22.4910   21.5890   69.2100 C.cat  71  ARG71       0.5346
     51  NH1      -22.7020   21.8310   70.4970 N.pl3  71  ARG71       0.1354
     52  NH2      -22.9370   20.4620   68.6710 N.pl3  71  ARG71       0.1354
     53  N        -26.4060   15.5870   66.6900 N.3    83  ALA83      -0.1231
     54  CA       -25.6220   14.8150   67.6460 C.3    83  ALA83       0.1694
     55  C        -26.0020   15.1190   69.0880 C.2    83  ALA83       0.2593
     56  O        -26.5630   16.1720   69.3850 O.2    83  ALA83      -0.2718
     57  CB       -24.1330   15.0550   67.4270 C.3    83  ALA83       0.0304
     58  N        -25.6840   14.1880   69.9810 N.am   84  GLY84      -0.1942
     59  CA       -25.9930   14.3400   71.3910 C.3    84  GLY84       0.2014
     60  C        -25.4540   13.1820   72.2070 C.2    84  GLY84       0.2638
     61  O        -24.9550   12.2030   71.6550 O.2    84  GLY84      -0.2714
     62  N        -25.5570   13.2910   73.5270 N.am   85  LEU85      -0.1977
     63  CA       -25.0430   12.2550   74.4140 C.3    85  LEU85       0.1596
     64  C        -25.9910   11.0650   74.5040 C.2    85  LEU85       0.2287
     65  O        -27.1960   11.1980   74.2850 O.2    85  LEU85      -0.2864
     66  CB       -24.7840   12.8240   75.8110 C.3    85  LEU85       0.0297
     67  CG       -23.7750   13.9690   75.9110 C.3    85  LEU85       0.0022
     68  CD1      -23.5190   14.3260   77.3660 C.3    85  LEU85       0.0001
     69  CD2      -22.4780   13.5990   75.2120 C.3    85  LEU85       0.0001
     70  N        -32.3440   11.7580   69.5630 N.3    99  GLU99      -0.1245
     71  CA       -31.5890   12.9790   69.3160 C.3    99  GLU99       0.1567
     72  C        -32.0520   13.6550   68.0300 C.2    99  GLU99       0.2260
     73  O        -32.2120   14.8740   67.9790 O.2    99  GLU99      -0.2867
     74  CB       -30.0930   12.6760   69.2410 C.3    99  GLU99       0.0388
     75  CG       -29.2230   13.9130   69.2600 C.3    99  GLU99       0.1160
     76  CD       -29.4810   14.7770   70.4770 C.2    99  GLU99       0.3649
     77  OE1      -29.7560   15.9800   70.2990 O.co2  99  GLU99      -0.2457
     78  OE2      -29.4200   14.2520   71.6090 O.co2  99  GLU99      -0.2457
     79  N        -33.8100   17.4720   67.8200 N.3   103  GLU103     -0.1245
     80  CA       -33.1600   18.5720   67.1140 C.3   103  GLU103      0.1567
     81  C        -33.8540   18.9680   65.8100 C.2   103  GLU103      0.2260
     82  O        -33.8550   20.1400   65.4360 O.2   103  GLU103     -0.2867
     83  CB       -31.6880   18.2400   66.8460 C.3   103  GLU103      0.0388
     84  CG       -30.8540   18.0720   68.1050 C.3   103  GLU103      0.1160
     85  CD       -29.3670   18.0190   67.8170 C.2   103  GLU103      0.3649
     86  OE1      -28.5790   17.8770   68.7740 O.co2 103  GLU103     -0.2457
     87  OE2      -28.9830   18.1250   66.6340 O.co2 103  GLU103     -0.2457
     88  N        -30.2870   25.3340   74.0540 N.3   153  GLU153     -0.1245
     89  CA       -30.0410   24.7280   72.7520 C.3   153  GLU153      0.1567
     90  C        -30.7500   25.5030   71.6480 C.2   153  GLU153      0.2260
     91  O        -31.9760   25.4710   71.5390 O.2   153  GLU153     -0.2867
     92  CB       -30.4840   23.2640   72.7410 C.3   153  GLU153      0.0388
     93  CG       -29.6010   22.3440   73.5670 C.3   153  GLU153      0.1160
     94  CD       -30.0650   20.9010   73.5240 C.2   153  GLU153      0.3649
     95  OE1      -31.2180   20.6590   73.1100 O.co2 153  GLU153     -0.2457
     96  OE2      -29.2750   20.0100   73.9030 O.co2 153  GLU153     -0.2457
@<TRIPOS>BOND
     1    33    34    1
     2    82    81    2
     3    36    35    2
     4    34    35    1
     5    34    37    1
     6    81    80    1
     7    87    85   ar
     8    53    54    1
     9    37    38    1
    10    83    80    1
    11    83    84    1
    12    38    39    1
    13    80    79    1
    14    40    39    2
    15    57    54    1
    16    54    55    1
    17    39    41   am
    18    85    84    1
    19    85    86   ar
    20    47    46    1
    21    47    48    1
    22    73    72    2
    23    72    71    1
    24    42    43    1
    25    46    43    1
    26    49    48    1
    27    49    50    2
    28    52    50    1
    29    55    56    2
    30    55    58   am
    31    50    51    1
    32    74    75    1
    33    74    71    1
    34    43    44    1
    35    75    76    1
    36    45    44    2
    37    71    70    1
    38    58    59    1
    39    77    76   ar
    40    76    78   ar
    41    59    60    1
    42    91    90    2
    43    90    89    1
    44    61    60    2
    45    60    62   am
    46    92    89    1
    47    92    93    1
    48    89    88    1
    49    95    94   ar
    50    94    93    1
    51    94    96   ar
    52    62    63    1
    53    65    64    2
    54    63    64    1
    55    63    66    1
    56    32    30    1
    57    69    67    1
    58    29    30    2
    59    29    28    1
    60    66    67    1
    61    67    68    1
    62    30    31    1
    63    28    27    1
    64    27    26    1
    65    21    19    1
    66    26    23    1
    67    20    19    1
    68    22    23    1
    69    19    16    1
    70    23    24    1
    71    16    15    1
    72    16    17    1
    73     4     3    2
    74    24    25    2
    75     5     6    1
    76     5     2    1
    77    11    13   ar
    78    11     8   ar
    79    13    14   ar
    80     3    15   am
    81     3     2    1
    82     8     6   ar
    83     8    10   ar
    84     6     7   ar
    85    17    18    2
    86    14    12   ar
    87     2     1    1
    88    10    12   ar
    89    10     9   ar
    90     7     9   ar
