@<TRIPOS>MOLECULE
tmp/3accA00.pdb
 140 134 0 0 0
SMALL
GASTEIGER

@<TRIPOS>ATOM
      1  N         15.5530   22.7120    8.0330 N.3    42  VAL42      -0.1245
      2  CA        16.6990   22.7000    7.1310 C.3    42  VAL42       0.1561
      3  C         17.1370   24.1420    6.9290 C.2    42  VAL42       0.2260
      4  O         16.4820   24.9070    6.2260 O.2    42  VAL42      -0.2867
      5  CB        16.3480   22.0600    5.7600 C.3    42  VAL42       0.0252
      6  CG1       17.5720   22.0510    4.8520 C.3    42  VAL42       0.0019
      7  CG2       15.8620   20.6270    5.9590 C.3    42  VAL42       0.0019
      8  N         17.3650   28.6140    4.6520 N.3    45  GLY45      -0.1225
      9  CA        16.1080   29.0440    4.0610 C.3    45  GLY45       0.1811
     10  C         14.7730   28.7700    4.7310 C.2    45  GLY45       0.2280
     11  O         13.8250   29.5320    4.5280 O.2    45  GLY45      -0.2866
     12  N         23.6720   20.3530   -1.8510 N.3    70  SER70      -0.1217
     13  CA        23.5250   19.3940   -2.9410 C.3    70  SER70       0.1889
     14  C         24.8150   18.6260   -3.2190 C.2    70  SER70       0.2288
     15  O         25.8990   19.2070   -3.2730 O.2    70  SER70      -0.2866
     16  CB        23.0690   20.1140   -4.2130 C.3    70  SER70       0.2089
     17  OG        22.7790   19.1900   -5.2480 O.3    70  SER70      -0.2183
     18  N         11.3060   22.0740    5.2700 N.3    89  GLU89      -0.1231
     19  CA        12.1090   22.5890    4.1750 C.3    89  GLU89       0.1699
     20  C         11.5550   23.8970    3.6030 C.2    89  GLU89       0.2592
     21  O         10.3780   24.2210    3.8000 O.2    89  GLU89      -0.2718
     22  CB        12.1530   21.5250    3.0760 C.3    89  GLU89       0.0402
     23  CG        13.0900   21.8450    1.9590 C.3    89  GLU89       0.1161
     24  CD        14.5250   21.8100    2.4090 C.2    89  GLU89       0.3649
     25  OE1       15.0660   20.6960    2.5700 O.co2  89  GLU89      -0.2457
     26  OE2       15.1020   22.8950    2.6110 O.co2  89  GLU89      -0.2457
     27  N         12.3970   24.6490    2.8940 N.am   90  ASP90      -0.1960
     28  CA        11.9400   25.8970    2.2910 C.3    90  ASP90       0.1840
     29  C         11.2750   25.6460    0.9380 C.2    90  ASP90       0.2622
     30  O         10.1010   25.9590    0.7430 O.2    90  ASP90      -0.2715
     31  CB        13.0970   26.9020    2.1450 C.3    90  ASP90       0.1450
     32  CG        14.3140   26.3270    1.4310 C.2    90  ASP90       0.3671
     33  OD1       14.3260   25.1230    1.1040 O.co2  90  ASP90      -0.2456
     34  OD2       15.2760   27.0960    1.2020 O.co2  90  ASP90      -0.2456
     35  N         12.0160   25.0670    0.0040 N.am   91  ILE91      -0.1963
     36  CA        11.4630   24.7940   -1.3120 C.3    91  ILE91       0.1727
     37  C         12.1190   23.5750   -1.9430 C.2    91  ILE91       0.2616
     38  O         13.3210   23.3630   -1.7980 O.2    91  ILE91      -0.2715
     39  CB        11.6330   26.0220   -2.2400 C.3    91  ILE91       0.0290
     40  CG1       11.1170   25.6950   -3.6430 C.3    91  ILE91       0.0022
     41  CG2       13.0960   26.4600   -2.2740 C.3    91  ILE91       0.0023
     42  CD1       11.0160   26.9150   -4.5400 C.3    91  ILE91       0.0001
     43  N         11.3150   22.7630   -2.6210 N.am   92  VAL92      -0.1963
     44  CA        11.8160   21.5700   -3.2870 C.3    92  VAL92       0.1727
     45  C         11.9590   21.8700   -4.7740 C.2    92  VAL92       0.2616
     46  O         10.9720   22.1320   -5.4640 O.2    92  VAL92      -0.2715
     47  CB        10.8600   20.3810   -3.0880 C.3    92  VAL92       0.0290
     48  CG1       11.3880   19.1440   -3.8370 C.3    92  VAL92       0.0023
     49  CG2       10.7050   20.0920   -1.5870 C.3    92  VAL92       0.0023
     50  N         13.1970   21.8420   -5.2580 N.am   93  ASP93      -0.1957
     51  CA        13.4900   22.1260   -6.6600 C.3    93  ASP93       0.1840
     52  C         13.6810   20.8130   -7.4250 C.2    93  ASP93       0.2623
     53  O         12.7020   20.2030   -7.8660 O.2    93  ASP93      -0.2715
     54  CB        14.7390   23.0100   -6.7370 C.3    93  ASP93       0.1450
     55  CG        14.9880   23.5660   -8.1250 C.2    93  ASP93       0.3671
     56  OD1       14.0370   23.6460   -8.9340 O.co2  93  ASP93      -0.2456
     57  OD2       16.1430   23.9460   -8.3990 O.co2  93  ASP93      -0.2456
     58  N         14.9230   20.3660   -7.5820 N.am   94  THR94      -0.1937
     59  CA        15.1620   19.1080   -8.2880 C.3    94  THR94       0.2028
     60  C         14.7990   17.9450   -7.3680 C.2    94  THR94       0.2643
     61  O         14.4870   16.8480   -7.8350 O.2    94  THR94      -0.2714
     62  CB        16.6410   18.9430   -8.7120 C.3    94  THR94       0.1808
     63  OG1       17.4690   18.8530   -7.5460 O.3    94  THR94      -0.2208
     64  CG2       17.0880   20.1240   -9.5740 C.3    94  THR94       0.0379
     65  N         14.8440   18.1970   -6.0600 N.am   95  GLY95      -0.1939
     66  CA        14.5270   17.1670   -5.0830 C.3    95  GLY95       0.2014
     67  C         15.7480   16.4030   -4.5830 C.2    95  GLY95       0.2639
     68  O         15.6480   15.5660   -3.6780 O.2    95  GLY95      -0.2714
     69  N         16.9040   16.6920   -5.1730 N.am   96  LEU96      -0.1963
     70  CA        18.1560   16.0270   -4.8110 C.3    96  LEU96       0.1728
     71  C         18.4920   16.1640   -3.3290 C.2    96  LEU96       0.2617
     72  O         18.6970   15.1680   -2.6410 O.2    96  LEU96      -0.2715
     73  CB        19.3160   16.5950   -5.6380 C.3    96  LEU96       0.0311
     74  CG        20.3060   15.6160   -6.2790 C.3    96  LEU96       0.0022
     75  CD1       21.5520   16.3790   -6.7220 C.3    96  LEU96       0.0001
     76  CD2       20.6920   14.5270   -5.3000 C.3    96  LEU96       0.0001
     77  N         18.5520   17.4020   -2.8440 N.am   97  THR97      -0.1937
     78  CA        18.8790   17.6540   -1.4430 C.3    97  THR97       0.2028
     79  C         17.9560   16.9130   -0.4770 C.2    97  THR97       0.2642
     80  O         18.4230   16.2350    0.4360 O.2    97  THR97      -0.2714
     81  CB        18.8290   19.1570   -1.1200 C.3    97  THR97       0.1808
     82  OG1       19.7820   19.8530   -1.9320 O.3    97  THR97      -0.2208
     83  CG2       19.1590   19.3960    0.3430 C.3    97  THR97       0.0379
     84  N         16.6500   17.0350   -0.6810 N.am   98  LEU98      -0.1977
     85  CA        15.6960   16.3640    0.1880 C.3    98  LEU98       0.1596
     86  C         15.8650   14.8520    0.1100 C.2    98  LEU98       0.2287
     87  O         15.6850   14.1530    1.1050 O.2    98  LEU98      -0.2864
     88  CB        14.2620   16.7460   -0.1900 C.3    98  LEU98       0.0297
     89  CG        13.1650   16.1000    0.6610 C.3    98  LEU98       0.0022
     90  CD1       13.4060   16.3920    2.1410 C.3    98  LEU98       0.0001
     91  CD2       11.8080   16.6380    0.2250 C.3    98  LEU98       0.0001
     92  N          8.6290   23.2170   -6.9160 N.3   121  LYS121     -0.1245
     93  CA         8.6470   23.4780   -8.3570 C.3   121  LYS121      0.1561
     94  C          8.7630   22.1140   -9.0490 C.2   121  LYS121      0.2260
     95  O          9.8130   21.7580   -9.5780 O.2   121  LYS121     -0.2867
     96  CB         9.8430   24.3750   -8.7180 C.3   121  LYS121      0.0271
     97  CG         9.7940   25.7560   -8.0620 C.3   121  LYS121      0.0035
     98  CD        11.0140   26.6260   -8.3900 C.3   121  LYS121      0.0206
     99  CE        12.3020   26.0600   -7.7920 C.3   121  LYS121      0.1093
    100  NZ        13.4640   26.9720   -8.0160 N.3   121  LYS121     -0.1314
    101  N         10.7780   29.1110  -11.3090 N.3   141  ALA141     -0.1231
    102  CA        11.2790   30.4750  -11.1660 C.3   141  ALA141      0.1694
    103  C         12.1650   30.5570   -9.9340 C.2   141  ALA141      0.2592
    104  O         12.0240   29.7570   -9.0110 O.2   141  ALA141     -0.2718
    105  CB        10.1110   31.4520  -11.0300 C.3   141  ALA141      0.0304
    106  N         13.0900   31.5080   -9.9140 N.am  142  TYR142     -0.1962
    107  CA        13.9420   31.6500   -8.7450 C.3   142  TYR142      0.1771
    108  C         13.2720   32.6340   -7.8020 C.2   142  TYR142      0.2619
    109  O         13.2300   33.8380   -8.0620 O.2   142  TYR142     -0.2715
    110  CB        15.3420   32.1430   -9.1120 C.3   142  TYR142      0.0574
    111  CG        16.2920   32.1160   -7.9280 C.ar  142  TYR142     -0.0198
    112  CD1       16.3240   33.1650   -7.0040 C.ar  142  TYR142     -0.0009
    113  CD2       17.1230   31.0210   -7.7030 C.ar  142  TYR142     -0.0009
    114  CE1       17.1570   33.1190   -5.8880 C.ar  142  TYR142      0.0417
    115  CE2       17.9590   30.9620   -6.5880 C.ar  142  TYR142      0.0417
    116  CZ        17.9700   32.0150   -5.6860 C.ar  142  TYR142      0.1957
    117  OH        18.7820   31.9530   -4.5750 O.3   142  TYR142     -0.2866
    118  N         12.7430   32.1010   -6.7060 N.am  143  VAL143     -0.1977
    119  CA        12.0510   32.9050   -5.7130 C.3   143  VAL143      0.1596
    120  C         12.9890   33.2910   -4.5770 C.2   143  VAL143      0.2287
    121  O         14.1040   32.7850   -4.4790 O.2   143  VAL143     -0.2864
    122  CB        10.8470   32.1270   -5.1300 C.3   143  VAL143      0.0276
    123  CG1        9.9020   31.7100   -6.2560 C.3   143  VAL143      0.0022
    124  CG2       11.3390   30.8900   -4.3750 C.3   143  VAL143      0.0022
    125  N         14.0810   32.7190    2.2960 N.3   148  LEU148     -0.1231
    126  CA        14.8560   32.3410    1.1200 C.3   148  LEU148      0.1693
    127  C         15.6680   33.5330    0.6230 C.2   148  LEU148      0.2592
    128  O         15.1890   34.6660    0.5930 O.2   148  LEU148     -0.2718
    129  CB        13.9380   31.8110    0.0130 C.3   148  LEU148      0.0284
    130  CG        13.2360   30.4760    0.3100 C.3   148  LEU148      0.0019
    131  CD1       12.1950   30.6570    1.4140 C.3   148  LEU148      0.0001
    132  CD2       12.5670   29.9560   -0.9500 C.3   148  LEU148      0.0001
    133  N         16.9000   33.2650    0.2150 N.am  149  ASP149     -0.1974
    134  CA        17.7950   34.3220   -0.2150 C.3   149  ASP149      0.1709
    135  C         17.9930   34.5090   -1.7090 C.2   149  ASP149      0.2293
    136  O         17.5860   33.6930   -2.5450 O.2   149  ASP149     -0.2864
    137  CB        19.1720   34.0930    0.4030 C.3   149  ASP149      0.1436
    138  CG        19.9070   32.9400   -0.2570 C.2   149  ASP149      0.3671
    139  OD1       19.3630   31.8200   -0.2580 O.co2 149  ASP149     -0.2456
    140  OD2       21.0190   33.1520   -0.7840 O.co2 149  ASP149     -0.2456
@<TRIPOS>BOND
     1   101   102    1
     2   102   105    1
     3   102   103    1
     4   103   106   am
     5   103   104    2
     6   106   107    1
     7    95    94    2
     8    64    62    1
     9   110   107    1
    10   110   111    1
    11    94    93    1
    12    56    55   ar
    13   107   108    1
    14    96    93    1
    15    96    97    1
    16    62    59    1
    17    62    63    1
    18    57    55   ar
    19    98    97    1
    20    98    99    1
    21    93    92    1
    22    59    58    1
    23    59    60    1
    24    55    54    1
    25   109   108    2
    26   100    99    1
    27   111   113   ar
    28   111   112   ar
    29    53    52    2
    30    61    60    2
    31   108   118   am
    32   113   115   ar
    33    58    52   am
    34    52    51    1
    35    60    65   am
    36   112   114   ar
    37    54    51    1
    38    75    74    1
    39   118   119    1
    40    51    50    1
    41   115   116   ar
    42    74    73    1
    43    74    76    1
    44   123   122    1
    45    65    66    1
    46   114   116   ar
    47   119   122    1
    48   119   120    1
    49   116   117    1
    50    73    70    1
    51    46    45    2
    52    50    45   am
    53    17    16    1
    54    69    70    1
    55    69    67   am
    56   122   124    1
    57    66    67    1
    58    70    71    1
    59    45    44    1
    60    67    68    2
    61   120   121    2
    62    42    40    1
    63    16    13    1
    64    48    47    1
    65    40    39    1
    66    71    77   am
    67    71    72    2
    68    44    47    1
    69    44    43    1
    70    15    14    2
    71    14    13    1
    72    47    49    1
    73    13    12    1
    74    77    78    1
    75    43    37   am
    76   136   135    2
    77    41    39    1
    78    39    36    1
    79    37    38    2
    80    37    36    1
    81    82    81    1
    82   135   134    1
    83    78    81    1
    84    78    79    1
    85    36    35    1
    86    81    83    1
    87   132   130    1
    88   140   138   ar
    89    84    79   am
    90    84    85    1
    91    79    80    2
    92   139   138   ar
    93   138   137    1
    94   134   133    1
    95   134   137    1
    96    88    85    1
    97    88    89    1
    98    35    29   am
    99   129   130    1
   100   129   126    1
   101    86    85    1
   102    86    87    2
   103   133   127   am
   104    91    89    1
   105   130   131    1
   106   128   127    2
   107   127   126    1
   108    89    90    1
   109    30    29    2
   110    29    28    1
   111    33    32   ar
   112   126   125    1
   113    34    32   ar
   114    32    31    1
   115    23    24    1
   116    23    22    1
   117    31    28    1
   118    28    27    1
   119    24    25   ar
   120    24    26   ar
   121    27    20   am
   122    22    19    1
   123    20    21    2
   124    20    19    1
   125     9     8    1
   126     9    10    1
   127    19    18    1
   128    11    10    2
   129     6     5    1
   130     5     7    1
   131     5     2    1
   132     4     3    2
   133     3     2    1
   134     2     1    1
