@<TRIPOS>MOLECULE
tmp/3achA00.pdb
 131 125 0 0 0
SMALL
GASTEIGER

@<TRIPOS>ATOM
      1  N          4.8310   21.9700   13.8520 N.3    33  ASP33      -0.1239
      2  CA         4.4300   22.6500   12.6140 C.3    33  ASP33       0.1674
      3  C          4.1880   24.1550   12.9140 C.2    33  ASP33       0.2266
      4  O          3.7570   24.4960   14.0340 O.2    33  ASP33      -0.2867
      5  CB         3.1350   22.0060   12.0550 C.3    33  ASP33       0.1410
      6  CG         2.8470   22.4790   10.6740 C.2    33  ASP33       0.3668
      7  OD1        3.5120   21.9660    9.7570 O.co2  33  ASP33      -0.2456
      8  OD2        2.0090   23.3870   10.4880 O.co2  33  ASP33      -0.2456
      9  N          1.8630   25.8490   12.1520 N.3    35  THR35      -0.1218
     10  CA         0.4400   26.0000   12.4850 C.3    35  THR35       0.1862
     11  C         -0.0340   25.2840   13.7350 C.2    35  THR35       0.2287
     12  O         -1.2140   25.3090   14.1130 O.2    35  THR35      -0.2866
     13  CB        -0.5080   25.5960   11.3540 C.3    35  THR35       0.1770
     14  OG1       -0.4940   24.1660   11.2270 O.3    35  THR35      -0.2211
     15  CG2       -0.0570   26.2210   10.0620 C.3    35  THR35       0.0375
     16  N        -12.3880   24.5610   14.3530 N.3    66  ASP66      -0.1225
     17  CA       -11.4830   23.7040   13.5910 C.3    66  ASP66       0.1805
     18  C        -10.8710   22.6790   14.6230 C.2    66  ASP66       0.2598
     19  O        -10.3320   23.0540   15.7270 O.2    66  ASP66      -0.2718
     20  CB       -10.3800   24.5470   12.9770 C.3    66  ASP66       0.1424
     21  CG        -9.3990   23.6990   12.1690 C.2    66  ASP66       0.3668
     22  OD1       -8.6400   22.9370   12.7890 O.co2  66  ASP66      -0.2456
     23  OD2       -9.4370   23.6170   10.8920 O.co2  66  ASP66      -0.2456
     24  N        -10.9740   21.3930   14.2570 N.am   67  GLY67      -0.1942
     25  CA       -10.6420   20.3500   15.2860 C.3    67  GLY67       0.2014
     26  C         -9.1230   20.1760   15.5420 C.2    67  GLY67       0.2638
     27  O         -8.7770   19.5130   16.5310 O.2    67  GLY67      -0.2714
     28  N         -8.2790   20.7550   14.7290 N.am   68  TRP68      -0.1973
     29  CA        -6.8500   20.7410   15.0190 C.3    68  TRP68       0.1640
     30  C         -6.3200   22.0860   15.5330 C.2    68  TRP68       0.2290
     31  O         -5.1080   22.2020   15.8400 O.2    68  TRP68      -0.2864
     32  CB        -6.1470   20.3450   13.7540 C.3    68  TRP68       0.0576
     33  CG        -6.2680   18.8610   13.4130 C.ar   68  TRP68       0.0006
     34  CD1       -6.9930   17.8940   14.0480 C.ar   68  TRP68       0.0946
     35  CD2       -5.5230   18.2130   12.3720 C.ar   68  TRP68       0.0152
     36  NE1       -6.7410   16.6630   13.4830 N.ar   68  TRP68      -0.2442
     37  CE2       -5.8660   16.8340   12.4310 C.ar   68  TRP68       0.0810
     38  CE3       -4.6290   18.6610   11.3670 C.ar   68  TRP68       0.0012
     39  CZ2       -5.3500   15.8820   11.5510 C.ar   68  TRP68       0.0191
     40  CZ3       -4.0890   17.6850   10.4820 C.ar   68  TRP68       0.0001
     41  CH2       -4.4560   16.3080   10.6040 C.ar   68  TRP68       0.0015
     42  N          0.7190   19.5910   17.1250 N.3    73  ARG73      -0.1245
     43  CA         0.8780   19.0800   15.7400 C.3    73  ARG73       0.1563
     44  C          2.3840   19.1050   15.5350 C.2    73  ARG73       0.2260
     45  O          2.9920   20.1910   15.2880 O.2    73  ARG73      -0.2867
     46  CB         0.1170   20.0050   14.7850 C.3    73  ARG73       0.0307
     47  CG         0.4690   19.5980   13.3030 C.3    73  ARG73       0.0489
     48  CD        -0.3820   20.4140   12.3450 C.3    73  ARG73       0.2205
     49  NE         0.1050   20.1930   10.9990 N.pl3  73  ARG73      -0.0865
     50  CZ        -0.5890   20.5890    9.9090 C.cat  73  ARG73       0.5346
     51  NH1       -1.8190   21.1180   10.1020 N.pl3  73  ARG73       0.1354
     52  NH2       -0.0220   20.3710    8.7160 N.pl3  73  ARG73       0.1354
     53  N          5.9930   17.6440   13.7890 N.3    75  MET75      -0.1245
     54  CA         6.3810   17.2020   12.4490 C.3    75  MET75       0.1570
     55  C          7.8640   16.9040   12.3710 C.2    75  MET75       0.2261
     56  O          8.6960   17.6170   12.9850 O.2    75  MET75      -0.2867
     57  CB         5.9770   18.3030   11.4120 C.3    75  MET75       0.0387
     58  CG         6.3310   18.0010   10.0150 C.3    75  MET75       0.0595
     59  SD         5.7260   19.1080    8.7620 S.3    75  MET75      -0.1393
     60  CE         6.7040   20.4530    9.0970 C.3    75  MET75       0.0692
     61  N         -3.9110   11.5130   15.1530 N.3   108  SER108     -0.1217
     62  CA        -3.8380   11.3040   13.7010 C.3   108  SER108      0.1889
     63  C         -2.3930   11.2530   13.2200 C.2   108  SER108      0.2288
     64  O         -1.5110   11.9410   13.8080 O.2   108  SER108     -0.2866
     65  CB        -4.5190   12.4300   12.9800 C.3   108  SER108      0.2089
     66  OG        -5.9620   12.4400   13.2110 O.3   108  SER108     -0.2183
     67  N          0.6070   15.3500   -3.7880 N.3   117  GLY117     -0.1210
     68  CA         0.1230   16.7010   -3.3870 C.3   117  GLY117      0.1956
     69  C          0.5790   17.1200   -1.9710 C.2   117  GLY117      0.2612
     70  O         -0.0420   17.9640   -1.3220 O.2   117  GLY117     -0.2717
     71  N          1.6570   16.4580   -1.4630 N.am  118  PHE118     -0.1962
     72  CA         2.2310   16.8330   -0.1470 C.3   118  PHE118      0.1771
     73  C          1.3090   16.5650    1.0300 C.2   118  PHE118      0.2619
     74  O          1.4610   17.1920    2.0750 O.2   118  PHE118     -0.2715
     75  CB         2.8290   18.2460   -0.1460 C.3   118  PHE118      0.0574
     76  CG         3.9250   18.4120   -1.1980 C.ar  118  PHE118     -0.0200
     77  CD1        5.2630   18.2460   -0.8760 C.ar  118  PHE118     -0.0042
     78  CD2        3.5890   18.8260   -2.5330 C.ar  118  PHE118     -0.0042
     79  CE1        6.3120   18.4710   -1.8680 C.ar  118  PHE118     -0.0003
     80  CE2        4.6700   18.9830   -3.5100 C.ar  118  PHE118     -0.0003
     81  CZ         5.9780   18.7660   -3.1170 C.ar  118  PHE118     -0.0000
     82  N          0.3550   15.6630    0.8790 N.am  119  TRP119     -0.1974
     83  CA        -0.4580   15.2780    2.0210 C.3   119  TRP119      0.1640
     84  C         -0.9570   13.8900    1.7800 C.2   119  TRP119      0.2290
     85  O         -1.5860   13.6260    0.7270 O.2   119  TRP119     -0.2864
     86  CB        -1.6260   16.2240    2.2630 C.3   119  TRP119      0.0576
     87  CG        -2.1990   16.0500    3.6580 C.ar  119  TRP119      0.0006
     88  CD1       -3.3770   15.4040    4.0420 C.ar  119  TRP119      0.0946
     89  CD2       -1.5650   16.5100    4.8820 C.ar  119  TRP119      0.0152
     90  NE1       -3.5090   15.4940    5.4030 N.ar  119  TRP119     -0.2442
     91  CE2       -2.4110   16.1650    5.9500 C.ar  119  TRP119      0.0810
     92  CE3       -0.4010   17.2660    5.1660 C.ar  119  TRP119      0.0012
     93  CZ2       -2.1210   16.5280    7.2750 C.ar  119  TRP119      0.0191
     94  CZ3       -0.0870   17.6100    6.5030 C.ar  119  TRP119      0.0001
     95  CH2       -1.0030   17.2560    7.5230 C.ar  119  TRP119      0.0015
     96  N         -2.9920   11.0560    4.5180 N.3   121  GLN121     -0.1245
     97  CA        -3.3730   10.9470    5.9310 C.3   121  GLN121      0.1566
     98  C         -3.8060    9.5300    6.1970 C.2   121  GLN121      0.2260
     99  O         -4.6620    8.9380    5.4970 O.2   121  GLN121     -0.2867
    100  CB        -4.4660   11.9030    6.2080 C.3   121  GLN121      0.0367
    101  CG        -4.8940   11.9890    7.6410 C.3   121  GLN121      0.0905
    102  CD        -5.6750   13.2540    7.9180 C.2   121  GLN121      0.2608
    103  OE1       -5.4330   14.3320    7.3750 O.2   121  GLN121     -0.2717
    104  NE2       -6.6430   13.1470    8.7940 N.am  121  GLN121     -0.0878
    105  N         -7.4100    6.9780   12.6150 N.3   125  ASP125     -0.1239
    106  CA        -7.3100    7.8240   13.8000 C.3   125  ASP125      0.1674
    107  C         -7.5250    6.9410   15.0530 C.2   125  ASP125      0.2266
    108  O         -8.3750    6.0760   15.0850 O.2   125  ASP125     -0.2867
    109  CB        -8.4150    8.9060   13.8420 C.3   125  ASP125      0.1410
    110  CG        -8.2460    9.9130   12.8690 C.2   125  ASP125      0.3668
    111  OD1       -7.1540   10.1950   12.3260 O.co2 125  ASP125     -0.2456
    112  OD2       -9.2750   10.6560   12.6500 O.co2 125  ASP125     -0.2456
    113  N         -6.3770    7.8620    3.4470 N.3   156  ASN156     -0.1240
    114  CA        -7.5500    8.5850    2.9220 C.3   156  ASN156      0.1653
    115  C         -7.3600    8.9460    1.4560 C.2   156  ASN156      0.2266
    116  O         -6.2640    9.0480    0.8980 O.2   156  ASN156     -0.2867
    117  CB        -7.8510    9.8550    3.7440 C.3   156  ASN156      0.1155
    118  CG        -8.3210    9.5500    5.1430 C.2   156  ASN156      0.2627
    119  OD1       -8.6950    8.4130    5.4160 O.2   156  ASN156     -0.2716
    120  ND2       -8.3220   10.6060    6.0100 N.am  156  ASN156     -0.0877
    121  N          8.1650   13.0490    2.5450 N.3   168  ARG168     -0.1245
    122  CA         9.1020   14.1300    2.8770 C.3   168  ARG168      0.1563
    123  C          9.0310   14.3940    4.3690 C.2   168  ARG168      0.2260
    124  O         10.0490   14.5630    5.0380 O.2   168  ARG168     -0.2867
    125  CB         8.7700   15.3970    2.0700 C.3   168  ARG168      0.0307
    126  CG         9.8250   16.4880    2.3640 C.3   168  ARG168      0.0489
    127  CD         9.3250   17.9060    1.7980 C.3   168  ARG168      0.2205
    128  NE         8.1780   18.3410    2.5250 N.pl3 168  ARG168     -0.0865
    129  CZ         7.4220   19.3750    2.1210 C.cat 168  ARG168      0.5346
    130  NH1        7.7100   19.9540    0.8930 N.pl3 168  ARG168      0.1354
    131  NH2        6.3910   19.7920    2.8620 N.pl3 168  ARG168      0.1354
@<TRIPOS>BOND
     1    67    68    1
     2    80    81   ar
     3    80    78   ar
     4    68    69    1
     5    81    79   ar
     6    78    76   ar
     7    69    71   am
     8    69    70    2
     9    79    77   ar
    10    71    72    1
    11    76    77   ar
    12    76    75    1
    13    72    75    1
    14    72    73    1
    15    85    84    2
    16    82    73   am
    17    82    83    1
    18   130   129    1
    19   116   115    2
    20    73    74    2
    21   115   114    1
    22    84    83    1
    23   127   126    1
    24   127   128    1
    25    83    86    1
    26   125   126    1
    27   125   122    1
    28   129   128    2
    29   129   131    1
    30    86    87    1
    31   121   122    1
    32   122   123    1
    33   114   113    1
    34   114   117    1
    35    87    88   ar
    36    87    89   ar
    37   117   118    1
    38    88    90   ar
    39   123   124    2
    40    96    97    1
    41    89    92   ar
    42    89    91   ar
    43   118   119    2
    44   118   120   am
    45    92    94   ar
    46    90    91   ar
    47    99    98    2
    48    97    98    1
    49    97   100    1
    50    91    93   ar
    51   100   101    1
    52    94    95   ar
    53    93    95   ar
    54   103   102    2
    55   101   102    1
    56   102   104   am
    57    52    50    1
    58    59    60    1
    59    59    58    1
    60     7     6   ar
    61    50    51    1
    62    50    49    2
    63    58    57    1
    64    15    13    1
    65    40    41   ar
    66    40    38   ar
    67     8     6   ar
    68    41    39   ar
    69     6     5    1
    70    23    21   ar
    71    49    48    1
    72    14    13    1
    73    13    10    1
    74    38    35   ar
    75    57    54    1
    76    39    37   ar
    77     5     2    1
    78     9    10    1
    79    21    22   ar
    80    21    20    1
    81   111   110   ar
    82    48    47    1
    83    55    54    1
    84    55    56    2
    85    35    37   ar
    86    35    33   ar
    87    37    36   ar
    88    54    53    1
    89    10    11    1
    90     2     3    1
    91     2     1    1
    92   105   106    1
    93   112   110   ar
    94   110   109    1
    95     3     4    2
    96    20    17    1
    97    65    66    1
    98    65    62    1
    99    63    62    1
   100    63    64    2
   101    47    46    1
   102    33    32    1
   103    33    34   ar
   104    36    34   ar
   105    17    16    1
   106    17    18    1
   107    62    61    1
   108    11    12    2
   109    32    29    1
   110   106   109    1
   111   106   107    1
   112    24    18   am
   113    24    25    1
   114    18    19    2
   115    28    29    1
   116    28    26   am
   117    46    43    1
   118    29    30    1
   119   107   108    2
   120    25    26    1
   121    45    44    2
   122    30    31    2
   123    44    43    1
   124    26    27    2
   125    43    42    1
