@<TRIPOS>MOLECULE
tmp/3aciA00.pdb
 143 135 0 0 0
SMALL
GASTEIGER

@<TRIPOS>ATOM
      1  N          4.8920   21.8070   13.9020 N.3    33  ASP33      -0.1239
      2  CA         4.4460   22.5090   12.7030 C.3    33  ASP33       0.1674
      3  C          4.2220   24.0100   13.0120 C.2    33  ASP33       0.2266
      4  O          3.8190   24.3310   14.1440 O.2    33  ASP33      -0.2867
      5  CB         3.1450   21.9290   12.1860 C.3    33  ASP33       0.1410
      6  CG         2.8510   22.4050   10.7640 C.2    33  ASP33       0.3668
      7  OD1        3.4930   21.8270    9.8390 O.co2  33  ASP33      -0.2456
      8  OD2        2.0200   23.2650   10.5220 O.co2  33  ASP33      -0.2456
      9  N          1.8070   25.6530   12.2460 N.3    35  THR35      -0.1218
     10  CA         0.3840   25.8090   12.5850 C.3    35  THR35       0.1862
     11  C         -0.0510   25.1170   13.8810 C.2    35  THR35       0.2287
     12  O         -1.2630   25.1010   14.2790 O.2    35  THR35      -0.2866
     13  CB        -0.5850   25.3530   11.4550 C.3    35  THR35       0.1770
     14  OG1       -0.5050   23.9270   11.3870 O.3    35  THR35      -0.2211
     15  CG2       -0.2420   26.0500   10.1350 C.3    35  THR35       0.0375
     16  N        -12.4440   24.6060   14.7630 N.3    66  ASP66      -0.1225
     17  CA       -11.5470   23.7000   14.0260 C.3    66  ASP66       0.1805
     18  C        -10.9350   22.6930   15.0330 C.2    66  ASP66       0.2598
     19  O        -10.3310   23.1180   16.0720 O.2    66  ASP66      -0.2718
     20  CB       -10.4550   24.4220   13.2830 C.3    66  ASP66       0.1424
     21  CG        -9.5910   23.4340   12.5070 C.2    66  ASP66       0.3668
     22  OD1       -8.7770   22.7390   13.1230 O.co2  66  ASP66      -0.2456
     23  OD2       -9.8360   23.2620   11.3140 O.co2  66  ASP66      -0.2456
     24  N        -11.1290   21.3970   14.7480 N.am   67  GLY67      -0.1942
     25  CA       -10.7660   20.3000   15.7090 C.3    67  GLY67       0.2014
     26  C         -9.2540   20.1210   15.9340 C.2    67  GLY67       0.2638
     27  O         -8.8760   19.4580   16.9060 O.2    67  GLY67      -0.2714
     28  N         -8.4470   20.7740   15.1160 N.am   68  TRP68      -0.1973
     29  CA        -6.9810   20.6950   15.2860 C.3    68  TRP68       0.1640
     30  C         -6.4130   21.9950   15.7650 C.2    68  TRP68       0.2290
     31  O         -5.1980   22.0890   16.0270 O.2    68  TRP68      -0.2864
     32  CB        -6.2970   20.2850   13.9860 C.3    68  TRP68       0.0576
     33  CG        -6.3250   18.8010   13.7190 C.ar   68  TRP68       0.0006
     34  CD1       -6.9650   17.8260   14.4360 C.ar   68  TRP68       0.0946
     35  CD2       -5.6820   18.1310   12.6080 C.ar   68  TRP68       0.0152
     36  NE1       -6.7440   16.5640   13.8550 N.ar   68  TRP68      -0.2442
     37  CE2       -5.9870   16.7320   12.7300 C.ar   68  TRP68       0.0810
     38  CE3       -4.8600   18.5590   11.5420 C.ar   68  TRP68       0.0012
     39  CZ2       -5.4630   15.7650   11.8390 C.ar   68  TRP68       0.0191
     40  CZ3       -4.3450   17.5950   10.6650 C.ar   68  TRP68       0.0001
     41  CH2       -4.6680   16.2070   10.8040 C.ar   68  TRP68       0.0015
     42  N          0.7250   19.4650   17.1970 N.3    73  ARG73      -0.1245
     43  CA         0.9130   18.9520   15.8500 C.3    73  ARG73       0.1563
     44  C          2.4380   18.9690   15.6300 C.2    73  ARG73       0.2260
     45  O          3.0300   20.0400   15.3690 O.2    73  ARG73      -0.2867
     46  CB         0.1560   19.8530   14.8370 C.3    73  ARG73       0.0307
     47  CG         0.4510   19.4240   13.3980 C.3    73  ARG73       0.0489
     48  CD        -0.4060   20.2070   12.4210 C.3    73  ARG73       0.2205
     49  NE         0.1030   20.0720   11.0500 N.pl3  73  ARG73      -0.0865
     50  CZ        -0.6290   20.4900    9.9930 C.cat  73  ARG73       0.5346
     51  NH1       -1.8630   21.0010   10.1660 N.pl3  73  ARG73       0.1354
     52  NH2       -0.1060   20.2900    8.7620 N.pl3  73  ARG73       0.1354
     53  N          5.9910   17.4770   13.8530 N.3    75  MET75      -0.1245
     54  CA         6.3410   17.0630   12.4630 C.3    75  MET75       0.1570
     55  C          7.8400   16.7840   12.3970 C.2    75  MET75       0.2261
     56  O          8.6960   17.4380   13.0360 O.2    75  MET75      -0.2867
     57  CB         5.9600   18.1710   11.4610 C.3    75  MET75       0.0387
     58  CG         6.3210   17.7480   10.0490 C.3    75  MET75       0.0595
     59  SD         5.7230   18.9540    8.8370 S.3    75  MET75      -0.1393
     60  CE         6.7280   20.3620    9.2680 C.3    75  MET75       0.0692
     61  N         -7.7650   12.2900   20.2140 N.3   106  THR106     -0.1218
     62  CA        -7.8000   11.6100   18.9090 C.3   106  THR106      0.1862
     63  C         -6.4800   11.8170   18.2570 C.2   106  THR106      0.2287
     64  O         -6.1230   12.9440   17.9130 O.2   106  THR106     -0.2866
     65  CB        -8.9260   12.1590   18.0400 C.3   106  THR106      0.1770
     66  OG1      -10.1710   11.8750   18.7350 O.3   106  THR106     -0.2211
     67  CG2       -8.9800   11.3440   16.7650 C.3   106  THR106      0.0375
     68  N         -3.9480   11.4330   15.2130 N.3   108  SER108     -0.1217
     69  CA        -3.8810   11.2280   13.7470 C.3   108  SER108      0.1889
     70  C         -2.4420   11.2470   13.2560 C.2   108  SER108      0.2288
     71  O         -1.5590   11.8770   13.8470 O.2   108  SER108     -0.2866
     72  CB        -4.5920   12.3350   13.0010 C.3   108  SER108      0.2089
     73  OG        -5.9690   12.3420   13.3280 O.3   108  SER108     -0.2183
     74  N          0.5700   15.3480   -3.7050 N.3   117  GLY117     -0.1210
     75  CA         0.0270   16.6580   -3.2570 C.3   117  GLY117      0.1956
     76  C          0.5380   17.0950   -1.8860 C.2   117  GLY117      0.2612
     77  O         -0.0740   17.9740   -1.2610 O.2   117  GLY117     -0.2717
     78  N          1.6160   16.4430   -1.3720 N.am  118  PHE118     -0.1962
     79  CA         2.2010   16.8230   -0.0910 C.3   118  PHE118      0.1771
     80  C          1.2650   16.5750    1.0950 C.2   118  PHE118      0.2619
     81  O          1.4210   17.2200    2.1600 O.2   118  PHE118     -0.2715
     82  CB         2.8570   18.2210   -0.0790 C.3   118  PHE118      0.0574
     83  CG         3.9090   18.3820   -1.1360 C.ar  118  PHE118     -0.0200
     84  CD1        5.2790   18.1850   -0.8110 C.ar  118  PHE118     -0.0042
     85  CD2        3.5370   18.8290   -2.4330 C.ar  118  PHE118     -0.0042
     86  CE1        6.2810   18.3720   -1.7870 C.ar  118  PHE118     -0.0003
     87  CE2        4.5680   18.9510   -3.3990 C.ar  118  PHE118     -0.0003
     88  CZ         5.9060   18.7250   -3.0410 C.ar  118  PHE118     -0.0000
     89  N          0.3340   15.6380    0.9490 N.am  119  TRP119     -0.1974
     90  CA        -0.5350   15.2430    2.1190 C.3   119  TRP119      0.1640
     91  C         -1.1170   13.8780    1.8380 C.2   119  TRP119      0.2290
     92  O         -1.7130   13.6120    0.7930 O.2   119  TRP119     -0.2864
     93  CB        -1.6840   16.1940    2.3510 C.3   119  TRP119      0.0576
     94  CG        -2.2620   16.0400    3.7750 C.ar  119  TRP119      0.0006
     95  CD1       -3.4320   15.4440    4.1490 C.ar  119  TRP119      0.0946
     96  CD2       -1.6450   16.5290    4.9800 C.ar  119  TRP119      0.0152
     97  NE1       -3.5750   15.4780    5.5150 N.ar  119  TRP119     -0.2442
     98  CE2       -2.4950   16.1420    6.0680 C.ar  119  TRP119      0.0810
     99  CE3       -0.4800   17.2420    5.2260 C.ar  119  TRP119      0.0012
    100  CZ2       -2.2220   16.5590    7.4000 C.ar  119  TRP119      0.0191
    101  CZ3       -0.1900   17.5940    6.5920 C.ar  119  TRP119      0.0001
    102  CH2       -1.0530   17.2110    7.6250 C.ar  119  TRP119      0.0015
    103  N         -3.0610   11.0530    4.5350 N.3   121  GLN121     -0.1245
    104  CA        -3.4190   10.9280    5.9540 C.3   121  GLN121      0.1566
    105  C         -3.8960    9.5300    6.2340 C.2   121  GLN121      0.2260
    106  O         -4.7170    8.9510    5.4910 O.2   121  GLN121     -0.2867
    107  CB        -4.4890   11.8950    6.2210 C.3   121  GLN121      0.0367
    108  CG        -4.9330   11.9980    7.7100 C.3   121  GLN121      0.0905
    109  CD        -5.7510   13.2380    7.9570 C.2   121  GLN121      0.2608
    110  OE1       -5.4490   14.3360    7.4320 O.2   121  GLN121     -0.2717
    111  NE2       -6.7360   13.1230    8.8350 N.am  121  GLN121     -0.0878
    112  N         -7.5530    6.9880   12.5930 N.3   125  ASP125     -0.1239
    113  CA        -7.4080    7.8050   13.8330 C.3   125  ASP125      0.1674
    114  C         -7.6170    6.9180   15.0680 C.2   125  ASP125      0.2266
    115  O         -8.4650    6.0010   15.0780 O.2   125  ASP125     -0.2867
    116  CB        -8.4780    8.8700   13.9260 C.3   125  ASP125      0.1410
    117  CG        -8.3380    9.9070   12.9090 C.2   125  ASP125      0.3668
    118  OD1       -7.2170   10.1730   12.3920 O.co2 125  ASP125     -0.2456
    119  OD2       -9.3910   10.5570   12.6430 O.co2 125  ASP125     -0.2456
    120  N         -6.3920    7.9590    3.4300 N.3   156  ASN156     -0.1240
    121  CA        -7.5800    8.6730    2.8760 C.3   156  ASN156      0.1653
    122  C         -7.4350    9.0790    1.4060 C.2   156  ASN156      0.2266
    123  O         -6.3440    9.1760    0.8470 O.2   156  ASN156     -0.2867
    124  CB        -7.8330    9.9070    3.7220 C.3   156  ASN156      0.1155
    125  CG        -8.4300    9.5440    5.1090 C.2   156  ASN156      0.2627
    126  OD1       -8.8920    8.4500    5.3370 O.2   156  ASN156     -0.2716
    127  ND2       -8.4760   10.5500    6.0170 N.am  156  ASN156     -0.0877
    128  N          8.1150   12.9600    2.5730 N.3   168  ARG168     -0.1245
    129  CA         9.0590   14.0170    2.9290 C.3   168  ARG168      0.1563
    130  C          9.0010   14.3650    4.3990 C.2   168  ARG168      0.2260
    131  O         10.0460   14.4510    5.0690 O.2   168  ARG168     -0.2867
    132  CB         8.7530   15.2610    2.0970 C.3   168  ARG168      0.0307
    133  CG         9.7780   16.3500    2.3840 C.3   168  ARG168      0.0489
    134  CD         9.3270   17.6590    1.8000 C.3   168  ARG168      0.2205
    135  NE         8.2300   18.2520    2.5330 N.pl3 168  ARG168     -0.0865
    136  CZ         7.4270   19.2420    2.0850 C.cat 168  ARG168      0.5346
    137  NH1        7.7280   19.8990    0.9110 N.pl3 168  ARG168      0.1354
    138  NH2        6.4130   19.6540    2.8740 N.pl3 168  ARG168      0.1354
    139  N         -5.2950   15.4890   18.9170 N.3   175  ALA175     -0.1245
    140  CA        -6.4410   16.4590   18.9620 C.3   175  ALA175      0.1562
    141  C         -7.2730   16.2320   20.2250 C.2   175  ALA175      0.2260
    142  O         -7.4610   15.1100   20.7450 O.2   175  ALA175     -0.2867
    143  CB        -7.2930   16.2110   17.7640 C.3   175  ALA175      0.0290
@<TRIPOS>BOND
     1    74    75    1
     2    87    88   ar
     3    87    85   ar
     4    75    76    1
     5    88    86   ar
     6    85    83   ar
     7    76    78   am
     8    76    77    2
     9    86    84   ar
    10    78    79    1
    11    83    84   ar
    12    83    82    1
    13    79    82    1
    14    79    80    1
    15    92    91    2
    16   123   122    2
    17   137   136    1
    18    89    80   am
    19    89    90    1
    20    80    81    2
    21   122   121    1
    22   134   133    1
    23   134   135    1
    24    91    90    1
    25   136   135    2
    26   136   138    1
    27   132   133    1
    28   132   129    1
    29    90    93    1
    30    93    94    1
    31   128   129    1
    32   121   120    1
    33   121   124    1
    34   129   130    1
    35   124   125    1
    36    94    95   ar
    37    94    96   ar
    38    95    97   ar
    39   130   131    2
    40   103   104    1
    41    96    99   ar
    42    96    98   ar
    43   125   126    2
    44   125   127   am
    45    99   101   ar
    46   106   105    2
    47    97    98   ar
    48   104   107    1
    49   104   105    1
    50    98   100   ar
    51   107   108    1
    52   101   102   ar
    53   100   102   ar
    54   110   109    2
    55   108   109    1
    56   109   111   am
    57    52    50    1
    58    59    60    1
    59    59    58    1
    60     7     6   ar
    61    50    51    1
    62    50    49    2
    63    58    57    1
    64    15    13    1
    65     8     6   ar
    66    40    41   ar
    67    40    38   ar
    68     6     5    1
    69    41    39   ar
    70    49    48    1
    71    23    21   ar
    72    14    13    1
    73    13    10    1
    74    57    54    1
    75    38    35   ar
    76    39    37   ar
    77     5     2    1
    78     9    10    1
    79   118   117   ar
    80    55    54    1
    81    55    56    2
    82    48    47    1
    83    54    53    1
    84    21    22   ar
    85    21    20    1
    86    10    11    1
    87   112   113    1
    88    35    37   ar
    89    35    33   ar
    90   119   117   ar
    91     2     3    1
    92     2     1    1
    93    37    36   ar
    94   117   116    1
    95    72    73    1
    96    72    69    1
    97     3     4    2
    98    70    69    1
    99    70    71    2
   100    20    17    1
   101    47    46    1
   102    33    32    1
   103    33    34   ar
   104    69    68    1
   105   113   116    1
   106   113   114    1
   107    36    34   ar
   108    11    12    2
   109    32    29    1
   110    17    16    1
   111    17    18    1
   112    24    18   am
   113    24    25    1
   114    46    43    1
   115    18    19    2
   116   114   115    2
   117    28    29    1
   118    28    26   am
   119    29    30    1
   120    45    44    2
   121    44    43    1
   122    25    26    1
   123    30    31    2
   124    43    42    1
   125    26    27    2
   126    67    65    1
   127   143   140    1
   128    64    63    2
   129    65    66    1
   130    65    62    1
   131    63    62    1
   132    62    61    1
   133   139   140    1
   134   140   141    1
   135   141   142    2
