@<TRIPOS>MOLECULE
tmp/3acjA00.pdb
 110 104 0 0 0
SMALL
GASTEIGER

@<TRIPOS>ATOM
      1  N         30.6560   38.3560    2.5620 N.3    21  LEU21      -0.1231
      2  CA        30.7970   37.3320    3.6030 C.3    21  LEU21       0.1693
      3  C         30.5660   35.9350    3.0380 C.2    21  LEU21       0.2592
      4  O         31.1150   34.9380    3.5380 O.2    21  LEU21      -0.2718
      5  CB        29.8300   37.5900    4.7640 C.3    21  LEU21       0.0284
      6  CG        29.8880   38.9570    5.4580 C.3    21  LEU21       0.0019
      7  CD1       29.0610   38.9130    6.7080 C.3    21  LEU21       0.0001
      8  CD2       31.3150   39.3720    5.8230 C.3    21  LEU21       0.0001
      9  N         29.7730   35.8630    1.9780 N.am   22  GLY22      -0.1957
     10  CA        29.5140   34.5840    1.2940 C.3    22  GLY22       0.1869
     11  C         28.9640   34.7220   -0.1160 C.2    22  GLY22       0.2309
     12  O         28.3200   35.7200   -0.4610 O.2    22  GLY22      -0.2863
     13  N         26.0060   37.2630    0.2600 N.3    29  VAL29      -0.1245
     14  CA        25.7370   37.9210    1.5210 C.3    29  VAL29       0.1561
     15  C         26.9230   38.8260    1.8070 C.2    29  VAL29       0.2260
     16  O         28.0610   38.3790    1.8070 O.2    29  VAL29      -0.2867
     17  CB        25.5450   36.9200    2.6960 C.3    29  VAL29       0.0252
     18  CG1       25.3060   37.6790    4.0400 C.3    29  VAL29       0.0019
     19  CG2       24.4140   35.9530    2.4130 C.3    29  VAL29       0.0019
     20  N         23.6450   43.1370    7.5080 N.3    41  ALA41      -0.1245
     21  CA        23.9470   42.1000    6.5430 C.3    41  ALA41       0.1562
     22  C         22.9540   42.2380    5.3790 C.2    41  ALA41       0.2260
     23  O         21.7860   42.5460    5.5980 O.2    41  ALA41      -0.2867
     24  CB        23.8270   40.7280    7.1860 C.3    41  ALA41       0.0290
     25  N         17.0540   36.7080   14.5590 N.3    71  VAL71      -0.1245
     26  CA        17.6790   37.6950   13.6640 C.3    71  VAL71       0.1561
     27  C         16.5600   38.5220   13.0210 C.2    71  VAL71       0.2260
     28  O         15.6060   37.9740   12.4980 O.2    71  VAL71      -0.2867
     29  CB        18.5500   37.0000   12.6100 C.3    71  VAL71       0.0252
     30  CG1       18.9730   37.9650   11.4850 C.3    71  VAL71       0.0019
     31  CG2       19.7970   36.3860   13.3050 C.3    71  VAL71       0.0019
     32  N         19.2550   42.4030    6.8060 N.3    86  THR86      -0.1203
     33  CA        18.9410   41.9230    8.1640 C.3    86  THR86       0.1994
     34  C         19.8950   42.4500    9.2370 C.2    86  THR86       0.2618
     35  O         20.8970   43.1150    8.9420 O.2    86  THR86      -0.2717
     36  CB        18.9010   40.3630    8.2390 C.3    86  THR86       0.1784
     37  OG1       20.2250   39.8290    8.0370 O.3    86  THR86      -0.2211
     38  CG2       17.9100   39.7400    7.1710 C.3    86  THR86       0.0376
     39  N         19.5450   42.1590   10.4870 N.am   87  GLU87      -0.1965
     40  CA        20.3670   42.4480   11.6580 C.3    87  GLU87       0.1733
     41  C         21.7580   41.7980   11.4840 C.2    87  GLU87       0.2616
     42  O         21.8600   40.6220   11.1460 O.2    87  GLU87      -0.2715
     43  CB        19.6680   41.8740   12.8880 C.3    87  GLU87       0.0429
     44  CG        20.2820   42.2670   14.2360 C.3    87  GLU87       0.1163
     45  CD        19.4950   41.7210   15.4010 C.2    87  GLU87       0.3649
     46  OE1       18.6180   40.8330   15.1700 O.co2  87  GLU87      -0.2457
     47  OE2       19.7710   42.1560   16.5480 O.co2  87  GLU87      -0.2457
     48  N         22.8120   42.5740   11.6810 N.am   88  TYR88      -0.1960
     49  CA        24.1620   42.0410   11.5260 C.3    88  TYR88       0.1771
     50  C         24.6350   41.3540   12.8100 C.2    88  TYR88       0.2619
     51  O         24.4610   41.8850   13.9060 O.2    88  TYR88      -0.2715
     52  CB        25.1310   43.1680   11.1630 C.3    88  TYR88       0.0574
     53  CG        26.5030   42.6500   10.7740 C.ar   88  TYR88      -0.0198
     54  CD1       26.6740   41.9320    9.6000 C.ar   88  TYR88      -0.0009
     55  CD2       27.6210   42.8960   11.5670 C.ar   88  TYR88      -0.0009
     56  CE1       27.9080   41.4380    9.2440 C.ar   88  TYR88       0.0417
     57  CE2       28.8790   42.3970   11.2180 C.ar   88  TYR88       0.0417
     58  CZ        29.0170   41.6740   10.0470 C.ar   88  TYR88       0.1957
     59  OH        30.2560   41.1700    9.6450 O.3    88  TYR88      -0.2866
     60  N         25.2230   40.1710   12.6740 N.am   89  MET89      -0.1963
     61  CA        25.6880   39.4060   13.8300 C.3    89  MET89       0.1736
     62  C         27.1960   39.2270   13.6970 C.2    89  MET89       0.2616
     63  O         27.6790   38.4570   12.8660 O.2    89  MET89      -0.2715
     64  CB        24.9670   38.0620   13.9420 C.3    89  MET89       0.0427
     65  CG        23.4070   38.1750   13.9710 C.3    89  MET89       0.0599
     66  SD        22.7520   38.9350   15.4780 S.3    89  MET89      -0.1393
     67  CE        23.3840   37.8960   16.7540 C.3    89  MET89       0.0692
     68  N         27.9170   39.9010   14.5770 N.am   90  GLU90      -0.1963
     69  CA        29.3270   40.1470   14.4200 C.3    90  GLU90       0.1733
     70  C         30.2150   38.9090   14.5490 C.2    90  GLU90       0.2616
     71  O         31.2780   38.8790   13.9390 O.2    90  GLU90      -0.2715
     72  CB        29.7900   41.2320   15.4110 C.3    90  GLU90       0.0429
     73  CG        31.2640   41.5400   15.3180 C.3    90  GLU90       0.1163
     74  CD        31.6390   42.3260   14.0580 C.2    90  GLU90       0.3649
     75  OE1       31.2380   43.5180   13.9510 O.co2  90  GLU90      -0.2457
     76  OE2       32.3790   41.7570   13.2070 O.co2  90  GLU90      -0.2457
     77  N         29.8140   37.9250   15.3650 N.am   91  ASN91      -0.1958
     78  CA        30.6110   36.7000   15.5070 C.3    91  ASN91       0.1819
     79  C         30.1920   35.5800   14.5850 C.2    91  ASN91       0.2622
     80  O         30.6560   34.4630   14.7180 O.2    91  ASN91      -0.2715
     81  CB        30.7220   36.2320   16.9680 C.3    91  ASN91       0.1195
     82  CG        31.7900   37.0000   17.7240 C.2    91  ASN91       0.2630
     83  OD1       32.8380   37.3410   17.1600 O.2    91  ASN91      -0.2716
     84  ND2       31.5230   37.3080   18.9860 N.am   91  ASN91      -0.0877
     85  N         29.3080   35.8960   13.6500 N.am   92  GLY92      -0.1940
     86  CA        28.9830   34.9850   12.5550 C.3    92  GLY92       0.2014
     87  C         28.2100   33.7720   13.0000 C.2    92  GLY92       0.2639
     88  O         27.4350   33.8500   13.9500 O.2    92  GLY92      -0.2714
     89  N         28.4130   32.6630   12.2960 N.am   93  SER93      -0.1949
     90  CA        27.7690   31.3730   12.6030 C.3    93  SER93       0.1924
     91  C         28.3000   30.7340   13.9010 C.2    93  SER93       0.2314
     92  O         29.5240   30.6920   14.1060 O.2    93  SER93      -0.2863
     93  CB        28.0970   30.4040   11.4740 C.3    93  SER93       0.2116
     94  OG        27.1540   29.3890   11.3940 O.3    93  SER93      -0.2180
     95  N         30.9330   28.1940   13.2840 N.3    96  ASP96      -0.1239
     96  CA        32.2520   28.7880   13.0390 C.3    96  ASP96       0.1674
     97  C         32.8460   29.3680   14.3190 C.2    96  ASP96       0.2266
     98  O         34.0270   29.1280   14.6190 O.2    96  ASP96      -0.2867
     99  CB        32.2490   29.8830   11.9350 C.3    96  ASP96       0.1410
    100  CG        31.7640   29.3660   10.5710 C.2    96  ASP96       0.3668
    101  OD1       31.9330   28.1800   10.2430 O.co2  96  ASP96      -0.2456
    102  OD2       31.1470   30.1410    9.8190 O.co2  96  ASP96      -0.2456
    103  N         23.2240   32.5250   14.8530 N.3   141  LEU141     -0.1245
    104  CA        24.2500   33.5540   14.7390 C.3   141  LEU141      0.1561
    105  C         24.6070   34.1270   16.1280 C.2   141  LEU141      0.2260
    106  O         23.7750   34.1050   17.0440 O.2   141  LEU141     -0.2867
    107  CB        23.8280   34.6650   13.7540 C.3   141  LEU141      0.0270
    108  CG        23.4990   34.2470   12.3260 C.3   141  LEU141      0.0019
    109  CD1       23.2400   35.4660   11.4250 C.3   141  LEU141      0.0001
    110  CD2       24.6620   33.4140   11.7300 C.3   141  LEU141      0.0001
@<TRIPOS>BOND
     1    12    11    2
     2    11    10    1
     3    13    14    1
     4    10     9    1
     5    14    15    1
     6    14    17    1
     7    16    15    2
     8     9     3   am
     9    19    17    1
    10     1     2    1
    11    17    18    1
    12     3     4    2
    13     3     2    1
    14     2     5    1
    15     5     6    1
    16    22    23    2
    17    22    21    1
    18     6     8    1
    19     6     7    1
    20    21    24    1
    21    21    20    1
    22    32    33    1
    23    38    36    1
    24    37    36    1
    25    33    36    1
    26    33    34    1
    27    35    34    2
    28    34    39   am
    29    56    54   ar
    30    56    58   ar
    31    54    53   ar
    32    59    58    1
    33   102   100   ar
    34    58    57   ar
    35   101   100   ar
    36    39    40    1
    37   100    99    1
    38    53    52    1
    39    53    55   ar
    40    42    41    2
    41    52    49    1
    42    57    55   ar
    43    94    93    1
    44   109   108    1
    45    93    90    1
    46    41    40    1
    47    41    48   am
    48    30    29    1
    49    49    48    1
    50    49    50    1
    51    40    43    1
    52   110   108    1
    53    99    96    1
    54    89    90    1
    55    89    87   am
    56   108   107    1
    57    28    27    2
    58    86    87    1
    59    86    85    1
    60    90    91    1
    61    29    31    1
    62    29    26    1
    63    60    50   am
    64    60    61    1
    65    50    51    2
    66    63    62    2
    67    43    44    1
    68    87    88    2
    69    27    26    1
    70    96    95    1
    71    96    97    1
    72    76    74   ar
    73    85    79   am
    74    26    25    1
    75    62    61    1
    76    62    68   am
    77   107   104    1
    78    61    64    1
    79    91    92    2
    80    71    70    2
    81    64    65    1
    82    75    74   ar
    83    65    66    1
    84    74    73    1
    85    44    45    1
    86    97    98    2
    87    69    70    1
    88    69    68    1
    89    69    72    1
    90    70    77   am
    91    79    80    2
    92    79    78    1
    93   104   103    1
    94   104   105    1
    95    46    45   ar
    96    73    72    1
    97    77    78    1
    98    45    47   ar
    99    66    67    1
   100    78    81    1
   101   105   106    2
   102    81    82    1
   103    83    82    2
   104    82    84   am
