@<TRIPOS>MOLECULE
tmp/3ackA00.pdb
 110 104 0 0 0
SMALL
GASTEIGER

@<TRIPOS>ATOM
      1  N         30.7790   38.3330    2.5040 N.3    21  LEU21      -0.1231
      2  CA        30.9880   37.2880    3.4990 C.3    21  LEU21       0.1693
      3  C         30.7790   35.8850    2.9300 C.2    21  LEU21       0.2592
      4  O         31.3000   34.9060    3.4690 O.2    21  LEU21      -0.2718
      5  CB        30.0720   37.5080    4.7040 C.3    21  LEU21       0.0284
      6  CG        30.2760   38.8170    5.4730 C.3    21  LEU21       0.0019
      7  CD1       29.1900   38.9920    6.5140 C.3    21  LEU21       0.0001
      8  CD2       31.6680   38.8900    6.1070 C.3    21  LEU21       0.0001
      9  N         30.0210   35.7930    1.8400 N.am   22  GLY22      -0.1957
     10  CA        29.6790   34.5040    1.2480 C.3    22  GLY22       0.1869
     11  C         29.0870   34.6000   -0.1470 C.2    22  GLY22       0.2309
     12  O         28.4590   35.6000   -0.5070 O.2    22  GLY22      -0.2863
     13  N         26.1380   37.2020    0.2170 N.3    29  VAL29      -0.1245
     14  CA        25.8730   37.8000    1.5230 C.3    29  VAL29       0.1561
     15  C         26.9810   38.7850    1.8840 C.2    29  VAL29       0.2260
     16  O         28.1500   38.4040    1.9960 O.2    29  VAL29      -0.2867
     17  CB        25.7820   36.7300    2.6220 C.3    29  VAL29       0.0252
     18  CG1       25.4210   37.3690    3.9590 C.3    29  VAL29       0.0019
     19  CG2       24.7720   35.6540    2.2330 C.3    29  VAL29       0.0019
     20  N         23.5220   43.3290    7.3650 N.3    41  ALA41      -0.1245
     21  CA        23.8940   42.2300    6.4850 C.3    41  ALA41       0.1562
     22  C         22.9820   42.2060    5.2630 C.2    41  ALA41       0.2260
     23  O         21.7640   42.2940    5.3910 O.2    41  ALA41      -0.2867
     24  CB        23.8250   40.9080    7.2270 C.3    41  ALA41       0.0290
     25  N         16.9560   36.7550   14.5500 N.3    71  VAL71      -0.1245
     26  CA        17.6130   37.7310   13.6850 C.3    71  VAL71       0.1561
     27  C         16.5540   38.5720   12.9710 C.2    71  VAL71       0.2260
     28  O         15.6430   38.0320   12.3430 O.2    71  VAL71      -0.2867
     29  CB        18.5770   37.0390   12.6630 C.3    71  VAL71       0.0252
     30  CG1       19.1090   38.0300   11.6390 C.3    71  VAL71       0.0019
     31  CG2       19.7400   36.3780   13.3890 C.3    71  VAL71       0.0019
     32  N         19.2990   42.5270    6.8620 N.3    86  THR86      -0.1203
     33  CA        19.0240   42.0440    8.2120 C.3    86  THR86       0.1994
     34  C         19.9990   42.5660    9.2710 C.2    86  THR86       0.2618
     35  O         21.0510   43.1100    8.9520 O.2    86  THR86      -0.2717
     36  CB        18.9840   40.4910    8.2780 C.3    86  THR86       0.1784
     37  OG1       20.2460   39.9510    7.8610 O.3    86  THR86      -0.2211
     38  CG2       17.8800   39.9350    7.3890 C.3    86  THR86       0.0376
     39  N         19.5770   42.4830   10.5290 N.am   87  GLU87      -0.1965
     40  CA        20.4450   42.6900   11.6900 C.3    87  GLU87       0.1733
     41  C         21.7970   42.0220   11.4480 C.2    87  GLU87       0.2616
     42  O         21.8570   40.8710   11.0210 O.2    87  GLU87      -0.2715
     43  CB        19.7700   42.0700   12.9210 C.3    87  GLU87       0.0429
     44  CG        20.4250   42.3350   14.2660 C.3    87  GLU87       0.1163
     45  CD        19.5990   41.7850   15.4250 C.2    87  GLU87       0.3649
     46  OE1       18.6880   40.9680   15.1760 O.co2  87  GLU87      -0.2457
     47  OE2       19.8350   42.1870   16.5820 O.co2  87  GLU87      -0.2457
     48  N         22.8780   42.7560   11.6880 N.am   88  TYR88      -0.1960
     49  CA        24.2230   42.2150   11.5090 C.3    88  TYR88       0.1771
     50  C         24.7260   41.5190   12.7750 C.2    88  TYR88       0.2619
     51  O         24.6910   42.0910   13.8710 O.2    88  TYR88      -0.2715
     52  CB        25.2040   43.3120   11.0790 C.3    88  TYR88       0.0574
     53  CG        26.5710   42.7830   10.7160 C.ar   88  TYR88      -0.0198
     54  CD1       26.7960   42.1760    9.4880 C.ar   88  TYR88      -0.0009
     55  CD2       27.6270   42.8500   11.6150 C.ar   88  TYR88      -0.0009
     56  CE1       28.0340   41.6490    9.1640 C.ar   88  TYR88       0.0417
     57  CE2       28.8740   42.3400   11.2970 C.ar   88  TYR88       0.0417
     58  CZ        29.0730   41.7380   10.0720 C.ar   88  TYR88       0.1957
     59  OH        30.3120   41.2200    9.7460 O.3    88  TYR88      -0.2866
     60  N         25.1530   40.2690   12.6280 N.am   89  MET89      -0.1963
     61  CA        25.7270   39.5350   13.7470 C.3    89  MET89       0.1736
     62  C         27.2520   39.4630   13.6200 C.2    89  MET89       0.2616
     63  O         27.7870   38.8180   12.7180 O.2    89  MET89      -0.2715
     64  CB        25.0940   38.1490   13.8760 C.3    89  MET89       0.0427
     65  CG        23.5630   38.1690   13.9150 C.3    89  MET89       0.0599
     66  SD        22.8530   39.0340   15.3370 S.3    89  MET89      -0.1393
     67  CE        23.5070   38.0490   16.6850 C.3    89  MET89       0.0692
     68  N         27.9360   40.1640   14.5200 N.am   90  GLU90      -0.1963
     69  CA        29.3720   40.4020   14.4170 C.3    90  GLU90       0.1733
     70  C         30.2070   39.1310   14.4910 C.2    90  GLU90       0.2616
     71  O         31.3110   39.0810   13.9540 O.2    90  GLU90      -0.2715
     72  CB        29.8310   41.3880   15.4950 C.3    90  GLU90       0.0429
     73  CG        31.2550   41.9100   15.3110 C.3    90  GLU90       0.1163
     74  CD        31.3400   43.0550   14.3070 C.2    90  GLU90       0.3649
     75  OE1       30.4380   43.9260   14.3040 O.co2  90  GLU90      -0.2457
     76  OE2       32.3210   43.0950   13.5310 O.co2  90  GLU90      -0.2457
     77  N         29.6940   38.1090   15.1630 N.am   91  ASN91      -0.1958
     78  CA        30.4780   36.8970   15.3630 C.3    91  ASN91       0.1819
     79  C         30.0710   35.7460   14.4520 C.2    91  ASN91       0.2622
     80  O         30.6160   34.6480   14.5470 O.2    91  ASN91      -0.2715
     81  CB        30.4910   36.4730   16.8390 C.3    91  ASN91       0.1195
     82  CG        31.6090   37.1400   17.6310 C.2    91  ASN91       0.2630
     83  OD1       32.6910   37.4160   17.1000 O.2    91  ASN91      -0.2716
     84  ND2       31.3680   37.3630   18.9180 N.am   91  ASN91      -0.0877
     85  N         29.1450   36.0190   13.5390 N.am   92  GLY92      -0.1940
     86  CA        28.8140   35.0710   12.4790 C.3    92  GLY92       0.2014
     87  C         28.1330   33.8030   12.9600 C.2    92  GLY92       0.2639
     88  O         27.4140   33.8070   13.9580 O.2    92  GLY92      -0.2714
     89  N         28.3750   32.7110   12.2450 N.am   93  SER93      -0.1949
     90  CA        27.7350   31.4330   12.5330 C.3    93  SER93       0.1924
     91  C         28.2660   30.8020   13.8250 C.2    93  SER93       0.2314
     92  O         29.4730   30.8480   14.1010 O.2    93  SER93      -0.2863
     93  CB        27.9480   30.4750   11.3590 C.3    93  SER93       0.2116
     94  OG        26.8840   29.5460   11.2540 O.3    93  SER93      -0.2180
     95  N         30.8580   28.1690   13.1880 N.3    96  ASP96      -0.1239
     96  CA        32.1570   28.7630   12.9200 C.3    96  ASP96       0.1674
     97  C         32.7550   29.3860   14.1710 C.2    96  ASP96       0.2266
     98  O         33.9400   29.2190   14.4480 O.2    96  ASP96      -0.2867
     99  CB        32.0600   29.8120   11.8130 C.3    96  ASP96       0.1410
    100  CG        31.8510   29.1990   10.4460 C.2    96  ASP96       0.3668
    101  OD1       32.0530   27.9740   10.3010 O.co2  96  ASP96      -0.2456
    102  OD2       31.4610   29.9390    9.5200 O.co2  96  ASP96      -0.2456
    103  N         23.2300   32.5670   14.7340 N.3   141  LEU141     -0.1245
    104  CA        24.2270   33.6210   14.5840 C.3   141  LEU141      0.1561
    105  C         24.6120   34.1810   15.9520 C.2   141  LEU141      0.2260
    106  O         23.8680   34.0320   16.9210 O.2   141  LEU141     -0.2867
    107  CB        23.7390   34.7170   13.6280 C.3   141  LEU141      0.0270
    108  CG        23.4640   34.2950   12.1760 C.3   141  LEU141      0.0019
    109  CD1       23.0460   35.4720   11.3010 C.3   141  LEU141      0.0001
    110  CD2       24.6480   33.5880   11.5460 C.3   141  LEU141      0.0001
@<TRIPOS>BOND
     1    12    11    2
     2    11    10    1
     3    13    14    1
     4    10     9    1
     5    14    15    1
     6    14    17    1
     7     9     3   am
     8    15    16    2
     9    19    17    1
    10     1     2    1
    11    17    18    1
    12     3     4    2
    13     3     2    1
    14     2     5    1
    15     5     6    1
    16    22    23    2
    17    22    21    1
    18     6     8    1
    19     6     7    1
    20    21    24    1
    21    21    20    1
    22    32    33    1
    23    38    36    1
    24    37    36    1
    25    33    36    1
    26    33    34    1
    27    35    34    2
    28    56    54   ar
    29    56    58   ar
    30    34    39   am
    31    54    53   ar
    32   102   100   ar
    33    59    58    1
    34    58    57   ar
    35   101   100   ar
    36   100    99    1
    37    39    40    1
    38    53    52    1
    39    53    55   ar
    40    42    41    2
    41    52    49    1
    42    94    93    1
    43    57    55   ar
    44   109   108    1
    45    93    90    1
    46    41    48   am
    47    41    40    1
    48    49    48    1
    49    49    50    1
    50   110   108    1
    51    30    29    1
    52    40    43    1
    53    99    96    1
    54   108   107    1
    55    89    90    1
    56    89    87   am
    57    28    27    2
    58    86    87    1
    59    86    85    1
    60    90    91    1
    61    60    50   am
    62    60    61    1
    63    29    31    1
    64    29    26    1
    65    63    62    2
    66    50    51    2
    67    96    95    1
    68    96    97    1
    69    43    44    1
    70    87    88    2
    71    27    26    1
    72    76    74   ar
    73    85    79   am
    74    62    61    1
    75    62    68   am
    76   107   104    1
    77    26    25    1
    78    61    64    1
    79    91    92    2
    80    64    65    1
    81    65    66    1
    82    71    70    2
    83    97    98    2
    84    44    45    1
    85    75    74   ar
    86    74    73    1
    87    69    70    1
    88    69    68    1
    89    69    72    1
    90    79    80    2
    91    79    78    1
    92    70    77   am
    93   104   103    1
    94   104   105    1
    95    77    78    1
    96    46    45   ar
    97    73    72    1
    98    66    67    1
    99    78    81    1
   100    45    47   ar
   101   105   106    2
   102    81    82    1
   103    83    82    2
   104    82    84   am
