@<TRIPOS>MOLECULE
tmp/3acwA00.pdb
 186 174 0 0 0
SMALL
GASTEIGER

@<TRIPOS>ATOM
      1  N         56.1410    6.2490   61.3320 N.3    18  HIS18      -0.1241
      2  CA        56.2240    6.1690   59.8820 C.3    18  HIS18       0.1621
      3  C         57.5400    6.7390   59.3830 C.2    18  HIS18       0.2264
      4  O         58.1400    6.1600   58.4770 O.2    18  HIS18      -0.2867
      5  CB        55.1010    6.9620   59.2110 C.3    18  HIS18       0.0745
      6  CG        55.2520    7.0840   57.7230 C.ar   18  HIS18       0.0817
      7  ND1       55.6300    8.2560   57.1020 N.ar   18  HIS18      -0.2268
      8  CD2       55.1000    6.1660   56.7380 C.ar   18  HIS18       0.1154
      9  CE1       55.6990    8.0530   55.7960 C.ar   18  HIS18       0.1986
     10  NE2       55.3850    6.7930   55.5480 N.ar   18  HIS18      -0.2212
     11  N         61.3820   12.6990   59.1210 N.3    22  PHE22      -0.1241
     12  CA        60.5340   13.8790   59.2570 C.3    22  PHE22       0.1605
     13  C         60.2480   14.2160   60.7110 C.2    22  PHE22       0.2264
     14  O         60.2400   15.3910   61.0770 O.2    22  PHE22      -0.2867
     15  CB        59.3070   13.7640   58.3450 C.3    22  PHE22       0.0534
     16  CG        59.6990   13.6440   56.8950 C.ar   22  PHE22      -0.0203
     17  CD1       60.4300   14.6520   56.2780 C.ar   22  PHE22      -0.0042
     18  CD2       59.4170   12.4970   56.1800 C.ar   22  PHE22      -0.0042
     19  CE1       60.8590   14.5190   54.9580 C.ar   22  PHE22      -0.0003
     20  CE2       59.8280   12.3420   54.8650 C.ar   22  PHE22      -0.0003
     21  CZ        60.5480   13.3710   54.2570 C.ar   22  PHE22      -0.0000
     22  N         61.0550   17.8810   62.1170 N.3    26  PHE26      -0.1241
     23  CA        59.9070   18.7160   62.4770 C.3    26  PHE26       0.1605
     24  C         59.6180   18.8130   63.9700 C.2    26  PHE26       0.2264
     25  O         59.0340   19.8060   64.4190 O.2    26  PHE26      -0.2867
     26  CB        58.6640   18.3960   61.6370 C.3    26  PHE26       0.0534
     27  CG        58.8530   18.7210   60.1730 C.ar   26  PHE26      -0.0203
     28  CD1       58.9000   20.0440   59.7550 C.ar   26  PHE26      -0.0042
     29  CD2       59.1140   17.7270   59.2450 C.ar   26  PHE26      -0.0042
     30  CE1       59.1200   20.3720   58.4180 C.ar   26  PHE26      -0.0003
     31  CE2       59.3200   18.0370   57.9030 C.ar   26  PHE26      -0.0003
     32  CZ        59.3450   19.3640   57.4940 C.ar   26  PHE26      -0.0000
     33  N         50.4190   15.6650   59.1220 N.3    41  TYR41      -0.1241
     34  CA        51.1360   14.4670   58.7350 C.3    41  TYR41       0.1605
     35  C         50.3670   13.1890   59.0560 C.2    41  TYR41       0.2264
     36  O         50.2680   12.2940   58.2070 O.2    41  TYR41      -0.2867
     37  CB        52.5070   14.4720   59.4110 C.3    41  TYR41       0.0534
     38  CG        53.4810   13.5160   58.7850 C.ar   41  TYR41      -0.0201
     39  CD1       54.4930   14.0030   57.9680 C.ar   41  TYR41      -0.0009
     40  CD2       53.3870   12.1470   59.0020 C.ar   41  TYR41      -0.0009
     41  CE1       55.3990   13.1540   57.3950 C.ar   41  TYR41       0.0417
     42  CE2       54.3050   11.2700   58.4170 C.ar   41  TYR41       0.0417
     43  CZ        55.2960   11.7980   57.6230 C.ar   41  TYR41       0.1957
     44  OH        56.2570   11.0160   57.0290 O.3    41  TYR41      -0.2866
     45  N         47.5500   12.6010   56.6620 N.3    44  CYS44      -0.1221
     46  CA        48.0410   12.1390   55.3690 C.3    44  CYS44       0.1808
     47  C         48.4220   10.6610   55.4370 C.2    44  CYS44       0.2601
     48  O         48.1060    9.9150   54.5210 O.2    44  CYS44      -0.2717
     49  CB        49.1760   13.0390   54.8570 C.3    44  CYS44       0.0970
     50  SG        48.6200   14.6990   54.4140 S.3    44  CYS44      -0.0800
     51  N         49.0280   10.2130   56.5350 N.am   45  ARG45      -0.1979
     52  CA        49.3290    8.7900   56.7220 C.3    45  ARG45       0.1597
     53  C         48.0950    7.9060   56.7800 C.2    45  ARG45       0.2287
     54  O         48.0790    6.8120   56.2140 O.2    45  ARG45      -0.2864
     55  CB        50.1200    8.5610   58.0180 C.3    45  ARG45       0.0334
     56  CG        51.4890    9.2060   58.0610 C.3    45  ARG45       0.0492
     57  CD        52.3460    9.1170   56.7880 C.3    45  ARG45       0.2205
     58  NE        52.1570    8.0880   55.7630 N.pl3  45  ARG45      -0.0865
     59  CZ        52.0970    6.7650   55.8730 C.cat  45  ARG45       0.5346
     60  NH1       52.0920    6.1260   57.0400 N.pl3  45  ARG45       0.1354
     61  NH2       51.9850    6.0800   54.7420 N.pl3  45  ARG45       0.1354
     62  N         46.9070    7.5460   53.3500 N.3    48  ASP48      -0.1239
     63  CA        47.7900    6.6050   52.6510 C.3    48  ASP48       0.1674
     64  C         47.5730    5.1200   52.9700 C.2    48  ASP48       0.2266
     65  O         47.6530    4.2790   52.0680 O.2    48  ASP48      -0.2867
     66  CB        49.2460    7.0200   52.8600 C.3    48  ASP48       0.1410
     67  CG        49.7220    7.9780   51.7950 C.2    48  ASP48       0.3668
     68  OD1       49.1820    9.1040   51.7220 O.co2  48  ASP48      -0.2456
     69  OD2       50.6240    7.5850   51.0170 O.co2  48  ASP48      -0.2456
     70  N         50.5760   12.4380   45.7300 N.3   133  VAL133     -0.1231
     71  CA        50.8160   11.8030   47.0350 C.3   133  VAL133      0.1692
     72  C         51.7590   12.5690   47.9430 C.2   133  VAL133      0.2591
     73  O         51.8140   12.2850   49.1400 O.2   133  VAL133     -0.2718
     74  CB        51.3470   10.3500   46.9270 C.3   133  VAL133      0.0266
     75  CG1       50.3470    9.4560   46.2020 C.3   133  VAL133      0.0020
     76  CG2       52.7290   10.3290   46.2900 C.3   133  VAL133      0.0020
     77  N         52.4410   13.5730   47.3900 N.am  134  ALA134     -0.1980
     78  CA        53.4760   14.2500   48.1560 C.3   134  ALA134      0.1597
     79  C         53.5320   15.7570   47.9450 C.2   134  ALA134      0.2287
     80  O         53.7500   16.4990   48.9060 O.2   134  ALA134     -0.2864
     81  CB        54.8140   13.6250   47.8690 C.3   134  ALA134      0.0319
     82  N         50.9490   17.1190   50.1550 N.3   137  VAL137     -0.1231
     83  CA        51.3780   17.2120   51.5500 C.3   137  VAL137      0.1692
     84  C         52.1540   18.5140   51.7770 C.2   137  VAL137      0.2592
     85  O         51.9120   19.2270   52.7560 O.2   137  VAL137     -0.2718
     86  CB        52.2140   15.9860   51.9680 C.3   137  VAL137      0.0266
     87  CG1       52.5560   16.1290   53.4670 C.3   137  VAL137      0.0020
     88  CG2       51.4370   14.6870   51.7000 C.3   137  VAL137      0.0020
     89  N         53.0540   18.8470   50.8500 N.am  138  GLY138     -0.1957
     90  CA        53.7250   20.1530   50.8740 C.3   138  GLY138      0.1869
     91  C         52.7690   21.3320   50.8960 C.2   138  GLY138      0.2309
     92  O         52.9260   22.2790   51.6730 O.2   138  GLY138     -0.2863
     93  N         51.0400   21.6950   54.2990 N.3   141  LEU141     -0.1245
     94  CA        51.9770   22.1680   55.3340 C.3   141  LEU141      0.1561
     95  C         52.3640   23.6370   55.1720 C.2   141  LEU141      0.2260
     96  O         52.8600   24.2790   56.0950 O.2   141  LEU141     -0.2867
     97  CB        53.2470   21.3120   55.3490 C.3   141  LEU141      0.0270
     98  CG        53.0090   19.9050   55.8910 C.3   141  LEU141      0.0019
     99  CD1       54.2730   19.0960   55.5810 C.3   141  LEU141      0.0001
    100  CD2       52.7050   19.9180   57.3870 C.3   141  LEU141      0.0001
    101  N         54.3310   26.5250   57.8410 N.3   145  LEU145     -0.1245
    102  CA        55.7770   26.7180   57.7140 C.3   145  LEU145      0.1561
    103  C         56.1450   28.0930   57.1800 C.2   145  LEU145      0.2260
    104  O         57.3180   28.3750   56.9480 O.2   145  LEU145     -0.2867
    105  CB        56.4140   25.6430   56.8300 C.3   145  LEU145      0.0270
    106  CG        56.1170   24.2140   57.3020 C.3   145  LEU145      0.0019
    107  CD1       56.6040   23.2070   56.2590 C.3   145  LEU145      0.0001
    108  CD2       56.7350   23.9690   58.6730 C.3   145  LEU145      0.0001
    109  N         57.1210   24.4780   48.3690 N.3   157  ALA157     -0.1245
    110  CA        56.7260   23.3540   49.2300 C.3   157  ALA157      0.1562
    111  C         56.2800   22.1410   48.4120 C.2   157  ALA157      0.2260
    112  O         56.5860   20.9860   48.7370 O.2   157  ALA157     -0.2867
    113  CB        55.6090   23.7820   50.1660 C.3   157  ALA157      0.0290
    114  N         59.3510   20.5310   46.8490 N.3   160  LEU160     -0.1231
    115  CA        60.0730   19.7520   47.8580 C.3   160  LEU160      0.1693
    116  C         59.3480   18.4240   48.0580 C.2   160  LEU160      0.2592
    117  O         59.9780   17.3630   48.0430 O.2   160  LEU160     -0.2718
    118  CB        60.2020   20.5050   49.1900 C.3   160  LEU160      0.0284
    119  CG        60.9170   19.7090   50.3070 C.3   160  LEU160      0.0019
    120  CD1       62.2950   19.2770   49.8370 C.3   160  LEU160      0.0001
    121  CD2       61.0520   20.6370   51.5150 C.3   160  LEU160      0.0001
    122  N         58.0310   18.4810   48.2350 N.am  161  GLY161     -0.1957
    123  CA        57.2560   17.2560   48.4890 C.3   161  GLY161      0.1869
    124  C         57.5040   16.2410   47.3850 C.2   161  GLY161      0.2309
    125  O         57.7510   15.0380   47.5980 O.2   161  GLY161     -0.2863
    126  N         61.0090   14.6910   47.4810 N.3   164  LEU164     -0.1231
    127  CA        61.0230   13.6620   48.5230 C.3   164  LEU164      0.1693
    128  C         60.3480   12.3680   48.0950 C.2   164  LEU164      0.2591
    129  O         60.8390   11.2930   48.4420 O.2   164  LEU164     -0.2718
    130  CB        60.3100   14.1560   49.7740 C.3   164  LEU164      0.0284
    131  CG        60.9690   15.3940   50.3690 C.3   164  LEU164      0.0019
    132  CD1       60.0880   15.9890   51.4620 C.3   164  LEU164      0.0001
    133  CD2       62.3400   15.1210   50.9320 C.3   164  LEU164      0.0001
    134  N         59.2240   12.4640   47.3770 N.am  165  GLN165     -0.1979
    135  CA        58.5820   11.2570   46.8650 C.3   165  GLN165      0.1601
    136  C         59.4730   10.5240   45.8670 C.2   165  GLN165      0.2287
    137  O         59.5240    9.2960   45.8840 O.2   165  GLN165     -0.2864
    138  CB        57.2500   11.5840   46.1850 C.3   165  GLN165      0.0394
    139  CG        56.4430   10.3490   45.8080 C.3   165  GLN165      0.0908
    140  CD        56.0920    9.5290   47.0290 C.2   165  GLN165      0.2608
    141  OE1       55.8720   10.0920   48.1000 O.2   165  GLN165     -0.2717
    142  NE2       56.0240    8.2090   46.8800 N.am  165  GLN165     -0.0878
    143  N         61.9700    8.6610   47.8050 N.3   168  ASN168     -0.1240
    144  CA        61.2910    7.4960   48.3960 C.3   168  ASN168      0.1653
    145  C         61.2110    6.3650   47.3560 C.2   168  ASN168      0.2266
    146  O         61.5120    5.2040   47.6470 O.2   168  ASN168     -0.2867
    147  CB        59.8930    7.9530   48.8370 C.3   168  ASN168      0.1155
    148  CG        59.2070    7.0200   49.8040 C.2   168  ASN168      0.2627
    149  OD1       59.5290    5.8370   49.8970 O.2   168  ASN168     -0.2716
    150  ND2       58.1920    7.5430   50.4940 N.am  168  ASN168     -0.0877
    151  N         60.0520   30.3350   53.5160 N.3   233  PHE233     -0.1241
    152  CA        59.5710   29.7750   54.7730 C.3   233  PHE233      0.1605
    153  C         59.8840   30.6970   55.9500 C.2   233  PHE233      0.2264
    154  O         60.7280   31.5850   55.8370 O.2   233  PHE233     -0.2867
    155  CB        60.1810   28.3800   54.9410 C.3   233  PHE233      0.0534
    156  CG        59.7290   27.4310   53.8680 C.ar  233  PHE233     -0.0203
    157  CD1       58.3850   27.1210   53.7470 C.ar  233  PHE233     -0.0042
    158  CD2       60.6360   26.8840   52.9630 C.ar  233  PHE233     -0.0042
    159  CE1       57.9550   26.2520   52.7500 C.ar  233  PHE233     -0.0003
    160  CE2       60.2110   26.0130   51.9570 C.ar  233  PHE233     -0.0003
    161  CZ        58.8560   25.7030   51.8480 C.ar  233  PHE233     -0.0000
    162  N         63.3850   22.8220   57.6520 N.3   241  ILE241     -0.1245
    163  CA        63.0720   22.3020   56.3190 C.3   241  ILE241      0.1561
    164  C         64.3510   21.8700   55.6170 C.2   241  ILE241      0.2260
    165  O         64.3770   20.8160   54.9600 O.2   241  ILE241     -0.2867
    166  CB        62.2770   23.3370   55.4960 C.3   241  ILE241      0.0252
    167  CG1       60.9210   23.5170   56.1870 C.3   241  ILE241      0.0019
    168  CG2       62.1040   22.8540   54.0490 C.3   241  ILE241      0.0019
    169  CD1       60.2000   24.7810   55.7640 C.3   241  ILE241      0.0001
    170  N         65.2440   18.4770   57.1800 N.3   244  ALA244     -0.1245
    171  CA        64.4010   17.4180   56.6470 C.3   244  ALA244      0.1562
    172  C         64.7960   17.0280   55.2300 C.2   244  ALA244      0.2260
    173  O         64.9770   15.8390   54.9320 O.2   244  ALA244     -0.2867
    174  CB        62.9210   17.7990   56.7070 C.3   244  ALA244      0.0290
    175  N         66.6930   13.5000   54.0570 N.3   248  TYR248     -0.1241
    176  CA        66.0190   12.6170   53.1230 C.3   248  TYR248      0.1605
    177  C         66.9100   12.4300   51.9110 C.2   248  TYR248      0.2264
    178  O         67.0870   11.3160   51.4250 O.2   248  TYR248     -0.2867
    179  CB        64.6060   13.0960   52.7480 C.3   248  TYR248      0.0534
    180  CG        63.6250   11.9400   52.6260 C.ar  248  TYR248     -0.0201
    181  CD1       63.2270   11.1790   53.7320 C.ar  248  TYR248     -0.0009
    182  CD2       63.1210   11.5680   51.3810 C.ar  248  TYR248     -0.0009
    183  CE1       62.3660   10.0950   53.5800 C.ar  248  TYR248      0.0417
    184  CE2       62.2570   10.5050   51.2260 C.ar  248  TYR248      0.0417
    185  CZ        61.8780    9.7620   52.3270 C.ar  248  TYR248      0.1957
    186  OH        61.0370    8.6870   52.1030 O.3   248  TYR248     -0.2866
@<TRIPOS>BOND
     1    70    71    1
     2   139   138    1
     3   139   140    1
     4   136   137    2
     5   136   135    1
     6   138   135    1
     7    75    74    1
     8    76    74    1
     9   114   115    1
    10   135   134    1
    11   142   140   am
    12    74    71    1
    13   140   141    2
    14    71    72    1
    15   145   146    2
    16   145   144    1
    17   134   128   am
    18   124   125    2
    19   124   123    1
    20    77    72   am
    21    77    78    1
    22   126   127    1
    23   143   144    1
    24   115   116    1
    25   115   118    1
    26    81    78    1
    27    72    73    2
    28    79    78    1
    29    79    80    2
    30   117   116    2
    31   116   122   am
    32   128   129    2
    33   128   127    1
    34   122   123    1
    35   109   110    1
    36   144   147    1
    37   111   112    2
    38   111   110    1
    39   127   130    1
    40   147   148    1
    41   118   119    1
    42   110   113    1
    43   130   131    1
    44   148   149    2
    45   148   150   am
    46   120   119    1
    47    82    83    1
    48   119   121    1
    49   131   133    1
    50   131   132    1
    51    89    90    1
    52    89    84   am
    53    90    91    1
    54    91    92    2
    55    69    67   ar
    56   184   182   ar
    57   184   185   ar
    58   182   180   ar
    59   178   177    2
    60    83    84    1
    61    83    86    1
    62    88    86    1
    63    68    67   ar
    64    84    85    2
    65    67    66    1
    66   161   160   ar
    67   161   159   ar
    68   177   176    1
    69   160   158   ar
    70    86    87    1
    71    65    64    2
    72   186   185    1
    73   185   183   ar
    74   180   179    1
    75   180   181   ar
    76    63    66    1
    77    63    64    1
    78    63    62    1
    79   179   176    1
    80   159   157   ar
    81   158   156   ar
    82   176   175    1
    83   151   152    1
    84   183   181   ar
    85   157   156   ar
    86   156   155    1
    87   168   166    1
    88    21    20   ar
    89    21    19   ar
    90    93    94    1
    91    50    49    1
    92    48    47    2
    93    61    59    1
    94   152   155    1
    95   152   153    1
    96    49    46    1
    97    20    18   ar
    98   173   172    2
    99    19    17   ar
   100   165   164    2
   101    95    94    1
   102    95    96    2
   103   172   171    1
   104    94    97    1
   105    97    98    1
   106    46    47    1
   107    46    45    1
   108    47    51   am
   109   166   167    1
   110   166   163    1
   111    10     9   ar
   112    10     8   ar
   113    99    98    1
   114   164   163    1
   115    58    59    2
   116    58    57    1
   117   169   167    1
   118     9     7   ar
   119   154   153    2
   120    59    60    1
   121    98   100    1
   122    18    16   ar
   123    54    53    2
   124   107   106    1
   125    17    16   ar
   126   163   162    1
   127    51    52    1
   128   171   174    1
   129   171   170    1
   130    52    53    1
   131    52    55    1
   132     8     6   ar
   133    57    56    1
   134   105   106    1
   135   105   102    1
   136    16    15    1
   137   104   103    2
   138    44    43    1
   139     7     6   ar
   140   103   102    1
   141   106   108    1
   142    41    43   ar
   143    41    39   ar
   144    32    31   ar
   145    32    30   ar
   146    43    42   ar
   147   102   101    1
   148     6     5    1
   149    31    29   ar
   150    39    38   ar
   151    55    56    1
   152    36    35    2
   153    15    12    1
   154    42    40   ar
   155    30    28   ar
   156     4     3    2
   157    34    35    1
   158    34    33    1
   159    34    37    1
   160    38    40   ar
   161    38    37    1
   162    11    12    1
   163     5     2    1
   164    29    27   ar
   165    12    13    1
   166     3     2    1
   167    28    27   ar
   168     2     1    1
   169    27    26    1
   170    13    14    2
   171    26    23    1
   172    22    23    1
   173    23    24    1
   174    24    25    2
