@<TRIPOS>MOLECULE
tmp/3acxA00.pdb
 196 182 0 0 0
SMALL
GASTEIGER

@<TRIPOS>ATOM
      1  N         53.5880    9.7100   63.5910 N.3    15  MET15      -0.1245
      2  CA        54.6070   10.3140   62.7420 C.3    15  MET15       0.1570
      3  C         55.9860    9.7280   63.0310 C.2    15  MET15       0.2261
      4  O         56.7230    9.3750   62.1040 O.2    15  MET15      -0.2867
      5  CB        54.6020   11.8300   62.9030 C.3    15  MET15       0.0387
      6  CG        55.6320   12.4840   62.0080 C.3    15  MET15       0.0595
      7  SD        55.4680   14.2730   62.0570 S.3    15  MET15      -0.1393
      8  CE        56.7940   14.7140   60.9310 C.3    15  MET15       0.0692
      9  N         56.4520    6.1930   61.7010 N.3    18  HIS18      -0.1241
     10  CA        56.5140    6.0930   60.2490 C.3    18  HIS18       0.1621
     11  C         57.7670    6.7260   59.6640 C.2    18  HIS18       0.2264
     12  O         58.3170    6.2200   58.6770 O.2    18  HIS18      -0.2867
     13  CB        55.2680    6.7580   59.6420 C.3    18  HIS18       0.0745
     14  CG        55.1320    6.5570   58.1680 C.ar   18  HIS18       0.0817
     15  ND1       55.3110    7.5680   57.2490 N.ar   18  HIS18      -0.2268
     16  CD2       54.8430    5.4430   57.4580 C.ar   18  HIS18       0.1154
     17  CE1       55.1180    7.0910   56.0330 C.ar   18  HIS18       0.1986
     18  NE2       54.8560    5.7980   56.1320 N.ar   18  HIS18      -0.2212
     19  N         61.5800   12.6480   59.3960 N.3    22  PHE22      -0.1241
     20  CA        60.7450   13.8330   59.5220 C.3    22  PHE22       0.1605
     21  C         60.4560   14.1590   60.9790 C.2    22  PHE22       0.2264
     22  O         60.3770   15.3270   61.3440 O.2    22  PHE22      -0.2867
     23  CB        59.4730   13.7370   58.6750 C.3    22  PHE22       0.0534
     24  CG        59.7370   13.5470   57.1980 C.ar   22  PHE22      -0.0203
     25  CD1       60.7070   14.2940   56.5530 C.ar   22  PHE22      -0.0042
     26  CD2       59.0090   12.6370   56.4470 C.ar   22  PHE22      -0.0042
     27  CE1       60.9660   14.1170   55.2010 C.ar   22  PHE22      -0.0003
     28  CE2       59.2570   12.4750   55.0820 C.ar   22  PHE22      -0.0003
     29  CZ        60.2480   13.2050   54.4660 C.ar   22  PHE22      -0.0000
     30  N         61.2780   17.8110   62.3680 N.3    26  PHE26      -0.1241
     31  CA        60.1250   18.6510   62.6740 C.3    26  PHE26       0.1605
     32  C         59.8010   18.7360   64.1540 C.2    26  PHE26       0.2264
     33  O         59.1910   19.7080   64.5880 O.2    26  PHE26      -0.2867
     34  CB        58.9150   18.2650   61.8310 C.3    26  PHE26       0.0534
     35  CG        59.0790   18.6390   60.3850 C.ar   26  PHE26      -0.0203
     36  CD1       58.9310   19.9530   59.9800 C.ar   26  PHE26      -0.0042
     37  CD2       59.3920   17.6890   59.4220 C.ar   26  PHE26      -0.0042
     38  CE1       59.0970   20.3100   58.6520 C.ar   26  PHE26      -0.0003
     39  CE2       59.5690   18.0580   58.0870 C.ar   26  PHE26      -0.0003
     40  CZ        59.4280   19.3630   57.7100 C.ar   26  PHE26      -0.0000
     41  N         52.1340   20.0050   62.5900 N.3    37  VAL37      -0.1245
     42  CA        52.7800   19.0440   61.6950 C.3    37  VAL37       0.1561
     43  C         52.4130   17.6120   62.0660 C.2    37  VAL37       0.2260
     44  O         52.0930   16.8190   61.1850 O.2    37  VAL37      -0.2867
     45  CB        54.3050   19.2490   61.6410 C.3    37  VAL37       0.0252
     46  CG1       54.9610   18.1760   60.8100 C.3    37  VAL37       0.0019
     47  CG2       54.6360   20.6280   61.0820 C.3    37  VAL37       0.0019
     48  N         50.5520   15.2390   59.4080 N.3    41  TYR41      -0.1241
     49  CA        51.2480   14.0250   59.0160 C.3    41  TYR41       0.1605
     50  C         50.3980   12.8010   59.3430 C.2    41  TYR41       0.2264
     51  O         50.2560   11.8860   58.5330 O.2    41  TYR41      -0.2867
     52  CB        52.6050   13.9340   59.7110 C.3    41  TYR41       0.0534
     53  CG        53.4690   12.8790   59.1060 C.ar   41  TYR41      -0.0201
     54  CD1       54.4640   13.2430   58.1980 C.ar   41  TYR41      -0.0009
     55  CD2       53.3040   11.5280   59.3980 C.ar   41  TYR41      -0.0009
     56  CE1       55.2600   12.3090   57.5740 C.ar   41  TYR41       0.0417
     57  CE2       54.1130   10.5610   58.7590 C.ar   41  TYR41       0.0417
     58  CZ        55.0820   10.9770   57.8600 C.ar   41  TYR41       0.1957
     59  OH        55.9140   10.0910   57.2260 O.3    41  TYR41      -0.2866
     60  N         47.6260   12.1790   56.9260 N.3    44  CYS44      -0.1221
     61  CA        48.1230   11.6900   55.6440 C.3    44  CYS44       0.1808
     62  C         48.6100   10.2430   55.7450 C.2    44  CYS44       0.2601
     63  O         48.4030    9.4440   54.8210 O.2    44  CYS44      -0.2717
     64  CB        49.2130   12.6250   55.1140 C.3    44  CYS44       0.0970
     65  SG        48.5740   14.2710   54.7320 S.3    44  CYS44      -0.0800
     66  N         49.2250    9.8920   56.8750 N.am   45  ARG45      -0.1979
     67  CA        49.6580    8.5150   57.0960 C.3    45  ARG45       0.1597
     68  C         48.4600    7.5710   57.1760 C.2    45  ARG45       0.2287
     69  O         48.4590    6.4740   56.6080 O.2    45  ARG45      -0.2864
     70  CB        50.4990    8.4690   58.3730 C.3    45  ARG45       0.0334
     71  CG        51.3860    7.2550   58.5390 C.3    45  ARG45       0.0492
     72  CD        50.6630    6.0590   59.1090 C.3    45  ARG45       0.2205
     73  NE        51.4540    4.8390   58.9380 N.pl3  45  ARG45      -0.0865
     74  CZ        51.5190    4.1340   57.8110 C.cat  45  ARG45       0.5346
     75  NH1       52.2700    3.0360   57.7590 N.pl3  45  ARG45       0.1354
     76  NH2       50.8070    4.4960   56.7500 N.pl3  45  ARG45       0.1354
     77  N         47.2060    6.8890   53.8500 N.3    48  ASP48      -0.1239
     78  CA        48.0870    6.0050   53.0910 C.3    48  ASP48       0.1674
     79  C         47.7980    4.5190   53.3120 C.2    48  ASP48       0.2266
     80  O         47.9530    3.7290   52.3770 O.2    48  ASP48      -0.2867
     81  CB        49.5550    6.3110   53.4000 C.3    48  ASP48       0.1410
     82  CG        50.4320    6.1340   52.1750 C.2    48  ASP48       0.3668
     83  OD1       50.3690    6.9740   51.2530 O.co2  48  ASP48      -0.2456
     84  OD2       51.1180    5.1020   52.1030 O.co2  48  ASP48      -0.2456
     85  N         50.5750   12.4020   46.0490 N.3   133  VAL133     -0.1231
     86  CA        50.8580   11.7960   47.3480 C.3   133  VAL133      0.1692
     87  C         51.7810   12.6070   48.2390 C.2   133  VAL133      0.2591
     88  O         51.9140   12.2810   49.4110 O.2   133  VAL133     -0.2718
     89  CB        51.3750   10.3440   47.2370 C.3   133  VAL133      0.0266
     90  CG1       50.3410    9.4370   46.5740 C.3   133  VAL133      0.0020
     91  CG2       52.7620   10.2560   46.6060 C.3   133  VAL133      0.0020
     92  N         52.4420   13.6330   47.7000 N.am  134  ALA134     -0.1980
     93  CA        53.4700   14.3360   48.4600 C.3   134  ALA134      0.1597
     94  C         53.4440   15.8380   48.2460 C.2   134  ALA134      0.2287
     95  O         53.5780   16.5920   49.2100 O.2   134  ALA134     -0.2864
     96  CB        54.8520   13.7780   48.1830 C.3   134  ALA134      0.0319
     97  N         50.7790   17.1690   50.4420 N.3   137  VAL137     -0.1231
     98  CA        51.1600   17.2970   51.8410 C.3   137  VAL137      0.1692
     99  C         51.9350   18.5960   52.0380 C.2   137  VAL137      0.2592
    100  O         51.7200   19.3300   53.0150 O.2   137  VAL137     -0.2718
    101  CB        51.9950   16.0940   52.3000 C.3   137  VAL137      0.0266
    102  CG1       52.3570   16.2190   53.7690 C.3   137  VAL137      0.0020
    103  CG2       51.2460   14.7990   52.0510 C.3   137  VAL137      0.0020
    104  N         52.8390   18.9110   51.1120 N.am  138  GLY138     -0.1957
    105  CA        53.5490   20.1800   51.1880 C.3   138  GLY138      0.1869
    106  C         52.6080   21.3760   51.1530 C.2   138  GLY138      0.2309
    107  O         52.7950   22.3620   51.8780 O.2   138  GLY138     -0.2863
    108  N         50.9850   21.7380   54.5630 N.3   141  LEU141     -0.1231
    109  CA        51.9350   22.2560   55.5520 C.3   141  LEU141      0.1693
    110  C         52.2970   23.7260   55.3610 C.2   141  LEU141      0.2592
    111  O         52.8000   24.3750   56.2900 O.2   141  LEU141     -0.2718
    112  CB        53.2190   21.4300   55.5250 C.3   141  LEU141      0.0284
    113  CG        53.0630   19.9960   56.0310 C.3   141  LEU141      0.0019
    114  CD1       54.2980   19.1730   55.6950 C.3   141  LEU141      0.0001
    115  CD2       52.8420   19.9530   57.5350 C.3   141  LEU141      0.0001
    116  N         52.0540   24.2700   54.1700 N.am  142  THR142     -0.1953
    117  CA        52.5580   25.5960   53.8300 C.3   142  THR142      0.1897
    118  C         52.1930   26.6840   54.8580 C.2   142  THR142      0.2313
    119  O         53.0930   27.3900   55.3130 O.2   142  THR142     -0.2863
    120  CB        52.1640   25.9490   52.3820 C.3   142  THR142      0.1794
    121  OG1       52.9710   25.1820   51.4850 O.3   142  THR142     -0.2208
    122  CG2       52.3840   27.4180   52.0780 C.3   142  THR142      0.0378
    123  N         54.2190   26.5590   58.1350 N.3   145  LEU145     -0.1245
    124  CA        55.6500   26.7750   58.0520 C.3   145  LEU145      0.1561
    125  C         56.0300   28.1090   57.4430 C.2   145  LEU145      0.2260
    126  O         57.2100   28.3490   57.2060 O.2   145  LEU145     -0.2867
    127  CB        56.3060   25.6200   57.2910 C.3   145  LEU145      0.0270
    128  CG        56.0140   24.2330   57.8650 C.3   145  LEU145      0.0019
    129  CD1       56.6010   23.1580   56.9510 C.3   145  LEU145      0.0001
    130  CD2       56.5720   24.0940   59.2800 C.3   145  LEU145      0.0001
    131  N         56.8770   24.3640   48.3380 N.3   157  ALA157     -0.1245
    132  CA        56.4380   23.2310   49.1590 C.3   157  ALA157      0.1562
    133  C         56.0900   22.0320   48.2940 C.2   157  ALA157      0.2260
    134  O         56.4230   20.8980   48.6770 O.2   157  ALA157     -0.2867
    135  CB        55.2560   23.6170   50.0070 C.3   157  ALA157      0.0290
    136  N         59.3470   20.5470   47.0480 N.3   160  LEU160     -0.1231
    137  CA        60.0000   19.7350   48.0650 C.3   160  LEU160      0.1693
    138  C         59.2850   18.4020   48.2280 C.2   160  LEU160      0.2592
    139  O         59.9100   17.3490   48.2950 O.2   160  LEU160     -0.2718
    140  CB        60.0840   20.4620   49.4090 C.3   160  LEU160      0.0284
    141  CG        60.8070   19.6450   50.4840 C.3   160  LEU160      0.0019
    142  CD1       62.1840   19.2110   50.0530 C.3   160  LEU160      0.0001
    143  CD2       60.8860   20.4600   51.7590 C.3   160  LEU160      0.0001
    144  N         57.9560   18.4300   48.2770 N.am  161  GLY161     -0.1957
    145  CA        57.2120   17.1820   48.4060 C.3   161  GLY161      0.1869
    146  C         57.5410   16.2240   47.2890 C.2   161  GLY161      0.2309
    147  O         57.7430   15.0230   47.4940 O.2   161  GLY161     -0.2863
    148  N         60.9290   14.6520   47.8980 N.3   164  LEU164     -0.1231
    149  CA        60.8580   13.6510   48.9500 C.3   164  LEU164      0.1693
    150  C         60.2150   12.3760   48.4390 C.2   164  LEU164      0.2591
    151  O         60.6820   11.2850   48.7670 O.2   164  LEU164     -0.2718
    152  CB        60.0790   14.2040   50.1410 C.3   164  LEU164      0.0284
    153  CG        60.6940   15.4280   50.8270 C.3   164  LEU164      0.0019
    154  CD1       59.7410   15.9740   51.8940 C.3   164  LEU164      0.0001
    155  CD2       62.0620   15.1210   51.4220 C.3   164  LEU164      0.0001
    156  N         59.1790   12.4870   47.6130 N.am  165  GLN165     -0.1979
    157  CA        58.5620   11.2740   47.0870 C.3   165  GLN165      0.1601
    158  C         59.4840   10.5460   46.1200 C.2   165  GLN165      0.2287
    159  O         59.5430    9.3210   46.1340 O.2   165  GLN165     -0.2864
    160  CB        57.2160   11.5510   46.4350 C.3   165  GLN165      0.0394
    161  CG        56.4200   10.2820   46.1190 C.3   165  GLN165      0.0908
    162  CD        56.1020    9.5160   47.3760 C.2   165  GLN165      0.2608
    163  OE1       55.9340   10.1180   48.4360 O.2   165  GLN165     -0.2717
    164  NE2       55.9970    8.1980   47.2760 N.am  165  GLN165     -0.0878
    165  N         61.8550    8.5950   48.1920 N.3   168  ASN168     -0.1240
    166  CA        61.1640    7.3970   48.6660 C.3   168  ASN168      0.1653
    167  C         61.1500    6.3130   47.5890 C.2   168  ASN168      0.2266
    168  O         61.4690    5.1600   47.8440 O.2   168  ASN168     -0.2867
    169  CB        59.7090    7.7590   48.9810 C.3   168  ASN168      0.1155
    170  CG        59.3500    7.6890   50.4080 C.2   168  ASN168      0.2627
    171  OD1       58.2470    7.2570   50.7650 O.2   168  ASN168     -0.2716
    172  ND2       60.2280    8.1810   51.2400 N.am  168  ASN168     -0.0877
    173  N         59.8980   30.3720   53.7800 N.3   233  PHE233     -0.1241
    174  CA        59.4270   29.8060   55.0440 C.3   233  PHE233      0.1605
    175  C         59.7770   30.7240   56.2070 C.2   233  PHE233      0.2264
    176  O         60.6420   31.6000   56.0890 O.2   233  PHE233     -0.2867
    177  CB        59.9650   28.3820   55.2230 C.3   233  PHE233      0.0534
    178  CG        59.5460   27.4530   54.1150 C.ar  233  PHE233     -0.0203
    179  CD1       58.2070   27.1130   53.9570 C.ar  233  PHE233     -0.0042
    180  CD2       60.4870   26.9460   53.2160 C.ar  233  PHE233     -0.0042
    181  CE1       57.8110   26.2610   52.9290 C.ar  233  PHE233     -0.0003
    182  CE2       60.0990   26.0850   52.1920 C.ar  233  PHE233     -0.0003
    183  CZ        58.7550   25.7510   52.0430 C.ar  233  PHE233     -0.0000
    184  N         63.4600   22.8150   58.0080 N.3   241  ILE241     -0.1245
    185  CA        63.1470   22.3240   56.6770 C.3   241  ILE241      0.1561
    186  C         64.4330   21.9130   55.9670 C.2   241  ILE241      0.2260
    187  O         64.4540   20.8740   55.3120 O.2   241  ILE241     -0.2867
    188  CB        62.3550   23.3870   55.8920 C.3   241  ILE241      0.0252
    189  CG1       60.9930   23.6100   56.5540 C.3   241  ILE241      0.0019
    190  CG2       62.2520   22.9840   54.4260 C.3   241  ILE241      0.0019
    191  CD1       60.3100   24.8740   56.0730 C.3   241  ILE241      0.0001
    192  N         65.3730   18.5620   57.4900 N.3   244  ALA244     -0.1245
    193  CA        64.5150   17.4780   57.0170 C.3   244  ALA244      0.1562
    194  C         64.9040   17.0650   55.6020 C.2   244  ALA244      0.2260
    195  O         65.0230   15.8730   55.3020 O.2   244  ALA244     -0.2867
    196  CB        63.0370   17.8760   57.0780 C.3   244  ALA244      0.0290
@<TRIPOS>BOND
     1    85    86    1
     2   161   160    1
     3   161   162    1
     4   158   159    2
     5   158   157    1
     6   160   157    1
     7    90    89    1
     8    91    89    1
     9   136   137    1
    10   157   156    1
    11    89    86    1
    12   164   162   am
    13   146   147    2
    14   146   145    1
    15    86    87    1
    16   162   163    2
    17   167   168    2
    18   167   166    1
    19   156   150   am
    20    92    87   am
    21    92    93    1
    22   148   149    1
    23   137   138    1
    24   137   140    1
    25    96    93    1
    26   165   166    1
    27   138   144   am
    28   138   139    2
    29    87    88    2
    30    94    93    1
    31    94    95    2
    32   144   145    1
    33   133   134    2
    34   133   132    1
    35   131   132    1
    36   150   151    2
    37   150   149    1
    38   166   169    1
    39   149   152    1
    40   169   170    1
    41   132   135    1
    42   140   141    1
    43   142   141    1
    44   152   153    1
    45   170   171    2
    46   170   172   am
    47    97    98    1
    48   141   143    1
    49   153   155    1
    50   153   154    1
    51   104   105    1
    52   104    99   am
    53   106   105    1
    54   106   107    2
    55    83    82   ar
    56   121   120    1
    57    98    99    1
    58    98   101    1
    59    99   100    2
    60   183   182   ar
    61   183   181   ar
    62   103   101    1
    63   122   120    1
    64    84    82   ar
    65    82    81    1
    66   182   180   ar
    67   101   102    1
    68    80    79    2
    69   120   117    1
    70   181   179   ar
    71    78    79    1
    72    78    81    1
    73    78    77    1
    74   180   178   ar
    75   173   174    1
    76   117   116    1
    77   117   118    1
    78   179   178   ar
    79   178   177    1
    80   116   110   am
    81   190   188    1
    82    29    28   ar
    83    29    27   ar
    84   108   109    1
    85    65    64    1
    86    63    62    2
    87   118   119    2
    88   174   177    1
    89   174   175    1
    90    28    26   ar
    91    64    61    1
    92    27    25   ar
    93   195   194    2
    94   187   186    2
    95   110   109    1
    96   110   111    2
    97   112   109    1
    98   112   113    1
    99   194   193    1
   100    61    62    1
   101    61    60    1
   102   114   113    1
   103    62    66   am
   104   188   189    1
   105   188   185    1
   106   186   185    1
   107   113   115    1
   108    17    18   ar
   109    17    15   ar
   110   191   189    1
   111   176   175    2
   112    18    16   ar
   113    26    24   ar
   114    25    24   ar
   115    69    68    2
   116   185   184    1
   117    76    74    1
   118    66    67    1
   119   129   128    1
   120   193   196    1
   121   193   192    1
   122    67    68    1
   123    67    70    1
   124    24    23    1
   125   126   125    2
   126    59    58    1
   127    15    14   ar
   128   127   128    1
   129   127   124    1
   130   125   124    1
   131    16    14   ar
   132    56    58   ar
   133    56    54   ar
   134    40    39   ar
   135    40    38   ar
   136    75    74    1
   137    74    73    2
   138    58    57   ar
   139   128   130    1
   140   124   123    1
   141    39    37   ar
   142    14    13    1
   143    54    53   ar
   144    70    71    1
   145    51    50    2
   146    71    72    1
   147    38    36   ar
   148    23    20    1
   149    12    11    2
   150    57    55   ar
   151    73    72    1
   152    49    50    1
   153    49    48    1
   154    49    52    1
   155    53    55   ar
   156    53    52    1
   157    19    20    1
   158    37    35   ar
   159    20    21    1
   160    13    10    1
   161    11    10    1
   162    36    35   ar
   163    10     9    1
   164    35    34    1
   165    46    45    1
   166     8     7    1
   167    21    22    2
   168    47    45    1
   169    44    43    2
   170    45    42    1
   171    42    43    1
   172    42    41    1
   173    34    31    1
   174     6     7    1
   175     6     5    1
   176     4     3    2
   177    30    31    1
   178    31    32    1
   179     2     5    1
   180     2     3    1
   181     2     1    1
   182    32    33    2
