@<TRIPOS>MOLECULE
tmp/3acyA00.pdb
 237 223 0 0 0
SMALL
GASTEIGER

@<TRIPOS>ATOM
      1  N         53.6200    9.7330   63.9940 N.3    15  MET15      -0.1245
      2  CA        54.6890   10.3070   63.1720 C.3    15  MET15       0.1570
      3  C         56.0570    9.7160   63.5220 C.2    15  MET15       0.2261
      4  O         56.8200    9.3420   62.6190 O.2    15  MET15      -0.2867
      5  CB        54.6730   11.8430   63.2190 C.3    15  MET15       0.0387
      6  CG        55.6500   12.5020   62.2350 C.3    15  MET15       0.0595
      7  SD        55.4150   14.2850   62.2620 S.3    15  MET15      -0.1393
      8  CE        56.6040   14.7020   60.9940 C.3    15  MET15       0.0692
      9  N         61.4040   12.5340   59.3410 N.3    22  PHE22      -0.1241
     10  CA        60.5840   13.7370   59.4590 C.3    22  PHE22       0.1605
     11  C         60.2940   14.0940   60.9130 C.2    22  PHE22       0.2264
     12  O         60.3000   15.2830   61.2570 O.2    22  PHE22      -0.2867
     13  CB        59.3090   13.6090   58.6240 C.3    22  PHE22       0.0534
     14  CG        59.5780   13.4230   57.1590 C.ar   22  PHE22      -0.0203
     15  CD1       60.5560   14.1780   56.5210 C.ar   22  PHE22      -0.0042
     16  CD2       58.8610   12.4910   56.4250 C.ar   22  PHE22      -0.0042
     17  CE1       60.8210   13.9940   55.1680 C.ar   22  PHE22      -0.0003
     18  CE2       59.1240   12.2890   55.0700 C.ar   22  PHE22      -0.0003
     19  CZ        60.0740   13.0790   54.4360 C.ar   22  PHE22      -0.0000
     20  N         61.1130   17.7380   62.2330 N.3    26  PHE26      -0.1241
     21  CA        59.9740   18.6030   62.5430 C.3    26  PHE26       0.1605
     22  C         59.6890   18.7680   64.0310 C.2    26  PHE26       0.2264
     23  O         59.1080   19.7720   64.4400 O.2    26  PHE26      -0.2867
     24  CB        58.7170   18.2560   61.7460 C.3    26  PHE26       0.0534
     25  CG        58.8400   18.5910   60.2810 C.ar   26  PHE26      -0.0203
     26  CD1       58.6250   19.8940   59.8370 C.ar   26  PHE26      -0.0042
     27  CD2       59.2280   17.6200   59.3610 C.ar   26  PHE26      -0.0042
     28  CE1       58.7310   20.2100   58.4890 C.ar   26  PHE26      -0.0003
     29  CE2       59.3450   17.9240   58.0050 C.ar   26  PHE26      -0.0003
     30  CZ        59.1110   19.2330   57.5750 C.ar   26  PHE26      -0.0000
     31  N         51.9870   20.1020   62.7710 N.3    37  VAL37      -0.1245
     32  CA        52.6380   19.1990   61.8210 C.3    37  VAL37       0.1561
     33  C         52.3190   17.7520   62.1720 C.2    37  VAL37       0.2260
     34  O         52.0290   16.9510   61.2820 O.2    37  VAL37      -0.2867
     35  CB        54.1600   19.4610   61.7840 C.3    37  VAL37       0.0252
     36  CG1       54.8800   18.3870   60.9780 C.3    37  VAL37       0.0019
     37  CG2       54.3990   20.8160   61.1380 C.3    37  VAL37       0.0019
     38  N         48.7820   17.0430   60.9440 N.3    40  ILE40      -0.1231
     39  CA        48.7890   16.8810   59.4830 C.3    40  ILE40       0.1692
     40  C         49.3970   15.5300   59.0820 C.2    40  ILE40       0.2592
     41  O         48.8390   14.8140   58.2400 O.2    40  ILE40      -0.2718
     42  CB        49.4830   18.0720   58.7450 C.3    40  ILE40       0.0266
     43  CG1       48.8110   19.4230   59.0620 C.3    40  ILE40       0.0019
     44  CG2       49.5580   17.8420   57.2230 C.3    40  ILE40       0.0020
     45  CD1       47.3240   19.4680   58.8640 C.3    40  ILE40       0.0001
     46  N         50.5580   15.1900   59.6410 N.am   41  TYR41      -0.1976
     47  CA        51.1710   13.8860   59.3560 C.3    41  TYR41       0.1639
     48  C         50.2510   12.6930   59.6200 C.2    41  TYR41       0.2290
     49  O         50.1030   11.7830   58.8030 O.2    41  TYR41      -0.2864
     50  CB        52.4730   13.6460   60.1320 C.3    41  TYR41       0.0560
     51  CG        53.1240   12.3460   59.6990 C.ar   41  TYR41      -0.0198
     52  CD1       54.0980   12.3520   58.7100 C.ar   41  TYR41      -0.0009
     53  CD2       52.7530   11.1110   60.2500 C.ar   41  TYR41      -0.0009
     54  CE1       54.6640   11.1760   58.2440 C.ar   41  TYR41       0.0417
     55  CE2       53.3510    9.9210   59.8150 C.ar   41  TYR41       0.0417
     56  CZ        54.3040    9.9720   58.8100 C.ar   41  TYR41       0.1957
     57  OH        54.9340    8.8520   58.3070 O.3    41  TYR41      -0.2866
     58  N         47.4660   12.2970   57.1610 N.3    44  CYS44      -0.1221
     59  CA        47.9180   11.8410   55.8540 C.3    44  CYS44       0.1808
     60  C         48.2850   10.3590   55.9160 C.2    44  CYS44       0.2601
     61  O         48.0360    9.6190   54.9620 O.2    44  CYS44      -0.2717
     62  CB        49.0820   12.6950   55.3330 C.3    44  CYS44       0.0970
     63  SG        48.5030   14.3420   54.8970 S.3    44  CYS44      -0.0800
     64  N         48.8920    9.9490   57.0270 N.am   45  ARG45      -0.1979
     65  CA        49.2850    8.5540   57.2330 C.3    45  ARG45       0.1597
     66  C         48.0450    7.6620   57.2420 C.2    45  ARG45       0.2287
     67  O         48.0340    6.5830   56.6500 O.2    45  ARG45      -0.2864
     68  CB        50.0400    8.4520   58.5640 C.3    45  ARG45       0.0334
     69  CG        50.3460    7.0390   59.0450 C.3    45  ARG45       0.0492
     70  CD        51.6210    6.5190   58.4200 C.3    45  ARG45       0.2205
     71  NE        51.3990    5.9670   57.0930 N.pl3  45  ARG45      -0.0865
     72  CZ        52.2730    6.0730   56.0970 C.cat  45  ARG45       0.5346
     73  NH1       53.4190    6.7210   56.2760 N.pl3  45  ARG45       0.1354
     74  NH2       52.0060    5.5240   54.9230 N.pl3  45  ARG45       0.1354
     75  N         46.8430    7.3370   53.7270 N.3    48  ASP48      -0.1225
     76  CA        47.7630    6.4550   53.0150 C.3    48  ASP48       0.1805
     77  C         47.4490    4.9800   53.2870 C.2    48  ASP48       0.2597
     78  O         47.5350    4.1530   52.3770 O.2    48  ASP48      -0.2718
     79  CB        49.2060    6.7600   53.4240 C.3    48  ASP48       0.1424
     80  CG        49.7070    8.1150   52.9520 C.2    48  ASP48       0.3668
     81  OD1       49.1350    8.7370   52.0280 O.co2  48  ASP48      -0.2456
     82  OD2       50.7310    8.5450   53.5320 O.co2  48  ASP48      -0.2456
     83  N         47.0220    4.6540   54.5070 N.am   49  ASP49      -0.1974
     84  CA        46.9240    3.2670   54.9660 C.3    49  ASP49       0.1709
     85  C         45.4840    2.7360   55.0360 C.2    49  ASP49       0.2293
     86  O         45.2320    1.5900   55.4360 O.2    49  ASP49      -0.2864
     87  CB        47.5600    3.1260   56.3520 C.3    49  ASP49       0.1436
     88  CG        49.0600    3.4110   56.3750 C.2    49  ASP49       0.3671
     89  OD1       49.7470    3.5020   55.3310 O.co2  49  ASP49      -0.2456
     90  OD2       49.5690    3.5460   57.5060 O.co2  49  ASP49      -0.2456
     91  N         51.5670   11.6660   40.0090 N.3   129  TYR129     -0.1241
     92  CA        51.3930   10.8480   41.2010 C.3   129  TYR129      0.1605
     93  C         52.1750   11.4040   42.3900 C.2   129  TYR129      0.2264
     94  O         51.6360   11.4390   43.4960 O.2   129  TYR129     -0.2867
     95  CB        51.7990    9.4060   40.8930 C.3   129  TYR129      0.0534
     96  CG        51.8060    8.5290   42.1180 C.ar  129  TYR129     -0.0201
     97  CD1       50.6110    8.0130   42.6200 C.ar  129  TYR129     -0.0009
     98  CD2       52.9980    8.2010   42.7520 C.ar  129  TYR129     -0.0009
     99  CE1       50.6020    7.1970   43.7400 C.ar  129  TYR129      0.0417
    100  CE2       52.9950    7.3960   43.8940 C.ar  129  TYR129      0.0417
    101  CZ        51.7930    6.8950   44.3630 C.ar  129  TYR129      0.1957
    102  OH        51.7580    6.0980   45.4860 O.3   129  TYR129     -0.2866
    103  N         50.3650   12.3460   45.9800 N.3   133  VAL133     -0.1231
    104  CA        50.6080   11.7540   47.3010 C.3   133  VAL133      0.1692
    105  C         51.4880   12.5920   48.2250 C.2   133  VAL133      0.2591
    106  O         51.4550   12.3880   49.4370 O.2   133  VAL133     -0.2718
    107  CB        51.2380   10.3560   47.2360 C.3   133  VAL133      0.0266
    108  CG1       50.3280    9.3780   46.5340 C.3   133  VAL133      0.0020
    109  CG2       52.6290   10.3850   46.6020 C.3   133  VAL133      0.0020
    110  N         52.2660   13.5280   47.6860 N.am  134  ALA134     -0.1980
    111  CA        53.2530   14.2450   48.5030 C.3   134  ALA134      0.1597
    112  C         53.2700   15.7500   48.2670 C.2   134  ALA134      0.2287
    113  O         53.4160   16.5060   49.2240 O.2   134  ALA134     -0.2864
    114  CB        54.6820   13.6830   48.2830 C.3   134  ALA134      0.0319
    115  N         50.6220   17.2100   50.3370 N.3   137  VAL137     -0.1231
    116  CA        50.9800   17.2940   51.7560 C.3   137  VAL137      0.1692
    117  C         51.8070   18.5630   51.9630 C.2   137  VAL137      0.2592
    118  O         51.6030   19.2910   52.9410 O.2   137  VAL137     -0.2718
    119  CB        51.7630   16.0380   52.2090 C.3   137  VAL137      0.0266
    120  CG1       52.0940   16.1150   53.6960 C.3   137  VAL137      0.0020
    121  CG2       50.9760   14.7630   51.9030 C.3   137  VAL137      0.0020
    122  N         52.7150   18.8350   51.0250 N.am  138  GLY138     -0.1957
    123  CA        53.4650   20.0950   51.0400 C.3   138  GLY138      0.1869
    124  C         52.5330   21.2940   51.0800 C.2   138  GLY138      0.2309
    125  O         52.7330   22.2350   51.8570 O.2   138  GLY138     -0.2863
    126  N         50.8970   21.6350   54.5000 N.3   141  LEU141     -0.1245
    127  CA        51.8280   22.1560   55.4960 C.3   141  LEU141      0.1561
    128  C         52.1860   23.6300   55.3390 C.2   141  LEU141      0.2260
    129  O         52.6860   24.2460   56.2820 O.2   141  LEU141     -0.2867
    130  CB        53.1230   21.3390   55.4930 C.3   141  LEU141      0.0270
    131  CG        53.0020   19.8990   56.0100 C.3   141  LEU141      0.0019
    132  CD1       54.2830   19.1300   55.6120 C.3   141  LEU141      0.0001
    133  CD2       52.8440   19.9390   57.5240 C.3   141  LEU141      0.0001
    134  N         54.1760   26.4020   58.0150 N.3   145  LEU145     -0.1245
    135  CA        55.6170   26.6050   57.8430 C.3   145  LEU145      0.1561
    136  C         56.0130   28.0110   57.3980 C.2   145  LEU145      0.2260
    137  O         57.1920   28.2970   57.2190 O.2   145  LEU145     -0.2867
    138  CB        56.2240   25.5470   56.9080 C.3   145  LEU145      0.0270
    139  CG        56.0070   24.0840   57.3340 C.3   145  LEU145      0.0019
    140  CD1       56.4540   23.1150   56.2410 C.3   145  LEU145      0.0001
    141  CD2       56.6970   23.7380   58.6470 C.3   145  LEU145      0.0001
    142  N         56.8990   24.3830   48.4890 N.3   157  ALA157     -0.1245
    143  CA        56.4740   23.2650   49.3440 C.3   157  ALA157      0.1562
    144  C         56.0110   22.0660   48.5270 C.2   157  ALA157      0.2260
    145  O         56.2310   20.9040   48.9000 O.2   157  ALA157     -0.2867
    146  CB        55.3580   23.7030   50.3030 C.3   157  ALA157      0.0290
    147  N         59.1350   20.4760   47.0890 N.3   160  LEU160     -0.1231
    148  CA        59.7480   19.7110   48.1740 C.3   160  LEU160      0.1693
    149  C         59.0610   18.3540   48.3380 C.2   160  LEU160      0.2592
    150  O         59.7120   17.3060   48.3780 O.2   160  LEU160     -0.2718
    151  CB        59.7190   20.5210   49.4830 C.3   160  LEU160      0.0284
    152  CG        60.1470   19.7710   50.7540 C.3   160  LEU160      0.0019
    153  CD1       61.5860   19.2960   50.6260 C.3   160  LEU160      0.0001
    154  CD2       59.9760   20.5900   52.0420 C.3   160  LEU160      0.0001
    155  N         57.7350   18.3630   48.4190 N.am  161  GLY161     -0.1957
    156  CA        56.9880   17.1330   48.6420 C.3   161  GLY161      0.1869
    157  C         57.2800   16.1710   47.5100 C.2   161  GLY161      0.2309
    158  O         57.6050   15.0120   47.7180 O.2   161  GLY161     -0.2863
    159  N         60.8490   14.6520   47.8060 N.3   164  LEU164     -0.1231
    160  CA        60.8760   13.6540   48.8690 C.3   164  LEU164      0.1693
    161  C         60.1910   12.3620   48.4110 C.2   164  LEU164      0.2591
    162  O         60.7310   11.2820   48.6710 O.2   164  LEU164     -0.2718
    163  CB        60.1880   14.2010   50.1250 C.3   164  LEU164      0.0284
    164  CG        60.8580   15.4160   50.7830 C.3   164  LEU164      0.0019
    165  CD1       59.9470   16.0450   51.8390 C.3   164  LEU164      0.0001
    166  CD2       62.1920   15.0720   51.4220 C.3   164  LEU164      0.0001
    167  N         59.0480   12.4640   47.7290 N.am  165  GLN165     -0.1979
    168  CA        58.4050   11.2550   47.2090 C.3   165  GLN165      0.1601
    169  C         59.2880   10.5320   46.1840 C.2   165  GLN165      0.2287
    170  O         59.3450    9.3040   46.1800 O.2   165  GLN165     -0.2864
    171  CB        57.0240   11.5330   46.6140 C.3   165  GLN165      0.0394
    172  CG        56.3650   10.3160   45.9900 C.3   165  GLN165      0.0908
    173  CD        56.0080    9.2290   46.9960 C.2   165  GLN165      0.2608
    174  OE1       56.0310    9.4340   48.2060 O.2   165  GLN165     -0.2717
    175  NE2       55.6230    8.0630   46.4840 N.am  165  GLN165     -0.0878
    176  N         61.7960    8.6190   48.0560 N.3   168  ASN168     -0.1240
    177  CA        61.1510    7.4370   48.6070 C.3   168  ASN168      0.1653
    178  C         61.0540    6.3320   47.5540 C.2   168  ASN168      0.2266
    179  O         61.3670    5.1730   47.8220 O.2   168  ASN168     -0.2867
    180  CB        59.7730    7.9000   49.0800 C.3   168  ASN168      0.1155
    181  CG        58.9830    6.8260   49.7560 C.2   168  ASN168      0.2627
    182  OD1       58.2420    6.0900   49.1080 O.2   168  ASN168     -0.2716
    183  ND2       59.0680    6.7820   51.0800 N.am  168  ASN168     -0.0877
    184  N         64.4350    4.7480   46.9260 N.3   171  ARG171     -0.1231
    185  CA        64.7820    3.8610   48.0410 C.3   171  ARG171      0.1694
    186  C         64.0430    2.5280   47.9670 C.2   171  ARG171      0.2592
    187  O         64.6030    1.4950   48.3230 O.2   171  ARG171     -0.2718
    188  CB        64.4310    4.5190   49.3870 C.3   171  ARG171      0.0321
    189  CG        64.9980    3.7680   50.5970 C.3   171  ARG171      0.0489
    190  CD        64.3850    4.2430   51.9150 C.3   171  ARG171      0.2205
    191  NE        62.9320    4.0740   51.9170 N.pl3 171  ARG171     -0.0865
    192  CZ        62.0770    4.7190   52.7050 C.cat 171  ARG171      0.5346
    193  NH1       62.5230    5.5720   53.6220 N.pl3 171  ARG171      0.1354
    194  NH2       60.7740    4.4720   52.6110 N.pl3 171  ARG171      0.1354
    195  N         62.7930    2.5380   47.5080 N.am  172  ASP172     -0.1974
    196  CA        61.9270    1.3840   47.7030 C.3   172  ASP172      0.1709
    197  C         61.6640    0.5490   46.4590 C.2   172  ASP172      0.2293
    198  O         60.6980   -0.2240   46.4450 O.2   172  ASP172     -0.2864
    199  CB        60.5940    1.8800   48.2780 C.3   172  ASP172      0.1436
    200  CG        60.7490    2.4530   49.6790 C.2   172  ASP172      0.3671
    201  OD1       61.7980    2.2440   50.3180 O.co2 172  ASP172     -0.2456
    202  OD2       59.8150    3.1270   50.1400 O.co2 172  ASP172     -0.2456
    203  N         57.1640    2.1650   39.7920 N.3   183  TYR183     -0.1241
    204  CA        56.8420    3.5860   39.6470 C.3   183  TYR183      0.1605
    205  C         57.6610    4.2710   38.5530 C.2   183  TYR183      0.2264
    206  O         57.2750    5.3330   38.0630 O.2   183  TYR183     -0.2867
    207  CB        56.9710    4.3220   40.9910 C.3   183  TYR183      0.0534
    208  CG        55.9440    3.8420   41.9940 C.ar  183  TYR183     -0.0201
    209  CD1       54.6020    4.2300   41.9110 C.ar  183  TYR183     -0.0009
    210  CD2       56.3100    2.9870   43.0260 C.ar  183  TYR183     -0.0009
    211  CE1       53.6450    3.7720   42.8260 C.ar  183  TYR183      0.0417
    212  CE2       55.3540    2.5160   43.9350 C.ar  183  TYR183      0.0417
    213  CZ        54.0310    2.9100   43.8300 C.ar  183  TYR183      0.1957
    214  OH        53.1320    2.4110   44.7540 O.3   183  TYR183     -0.2866
    215  N         66.6450   13.4560   54.2250 N.3   248  TYR248     -0.1241
    216  CA        65.9560   12.5880   53.2850 C.3   248  TYR248      0.1605
    217  C         66.7790   12.3760   52.0260 C.2   248  TYR248      0.2264
    218  O         66.8360   11.2670   51.5020 O.2   248  TYR248     -0.2867
    219  CB        64.5470   13.0910   52.9450 C.3   248  TYR248      0.0534
    220  CG        63.5450   11.9640   52.9430 C.ar  248  TYR248     -0.0201
    221  CD1       63.1530   11.3530   54.1340 C.ar  248  TYR248     -0.0009
    222  CD2       62.9770   11.5200   51.7550 C.ar  248  TYR248     -0.0009
    223  CE1       62.2420   10.3100   54.1510 C.ar  248  TYR248      0.0417
    224  CE2       62.0740   10.4650   51.7580 C.ar  248  TYR248      0.0417
    225  CZ        61.7100    9.8710   52.9540 C.ar  248  TYR248      0.1957
    226  OH        60.7940    8.8410   52.9270 O.3   248  TYR248     -0.2866
    227  N         65.9070   -2.2030   52.6070 N.3   265  ARG265     -0.1245
    228  CA        65.5790   -0.7870   52.7060 C.3   265  ARG265      0.1563
    229  C         66.7460   -0.0740   53.3730 C.2   265  ARG265      0.2260
    230  O         67.0220   -0.2950   54.5590 O.2   265  ARG265     -0.2867
    231  CB        64.3160   -0.5470   53.5310 C.3   265  ARG265      0.0307
    232  CG        64.0510    0.9560   53.6640 C.3   265  ARG265      0.0489
    233  CD        62.9060    1.2850   54.5890 C.3   265  ARG265      0.2205
    234  NE        61.6840    0.9430   53.8750 N.pl3 265  ARG265     -0.0865
    235  CZ        60.4830    1.4020   54.1930 C.cat 265  ARG265      0.5346
    236  NH1       60.3560    2.2040   55.2420 N.pl3 265  ARG265      0.1354
    237  NH2       59.4330    1.0510   53.4580 N.pl3 265  ARG265      0.1354
@<TRIPOS>BOND
     1   206   205    2
     2   205   204    1
     3   204   203    1
     4   204   207    1
     5    91    92    1
     6    95    92    1
     7    95    96    1
     8   207   208    1
     9    92    93    1
    10   209   208   ar
    11   209   211   ar
    12   208   210   ar
    13    96    97   ar
    14    96    98   ar
    15    93    94    2
    16    97    99   ar
    17    98   100   ar
    18   211   213   ar
    19   210   212   ar
    20    99   101   ar
    21   213   212   ar
    22   213   214    1
    23   100   101   ar
    24   101   102    1
    25   103   104    1
    26   172   171    1
    27   172   173    1
    28   170   169    2
    29   169   168    1
    30   198   197    2
    31   197   196    1
    32   175   173   am
    33   108   107    1
    34   109   107    1
    35   171   168    1
    36   184   185    1
    37   173   174    2
    38   147   148    1
    39   168   167    1
    40   107   104    1
    41   104   105    1
    42   195   196    1
    43   195   186   am
    44   157   158    2
    45   157   156    1
    46   178   179    2
    47   178   177    1
    48   110   105   am
    49   110   111    1
    50   196   199    1
    51   167   161   am
    52   159   160    1
    53   186   185    1
    54   186   187    2
    55   185   188    1
    56   176   177    1
    57   148   149    1
    58   148   151    1
    59   105   106    2
    60   112   111    1
    61   112   113    2
    62   199   200    1
    63   114   111    1
    64   149   150    2
    65   149   155   am
    66   161   162    2
    67   161   160    1
    68   155   156    1
    69   142   143    1
    70   144   145    2
    71   144   143    1
    72   177   180    1
    73   160   163    1
    74   180   181    1
    75   182   181    2
    76   143   146    1
    77   188   189    1
    78   151   152    1
    79   200   202   ar
    80   200   201   ar
    81   181   183   am
    82   163   164    1
    83   115   116    1
    84   189   190    1
    85   153   152    1
    86   152   154    1
    87   164   166    1
    88   164   165    1
    89   122   123    1
    90   122   117   am
    91   123   124    1
    92   124   125    2
    93   218   217    2
    94   222   224   ar
    95   222   220   ar
    96   116   117    1
    97   116   119    1
    98   224   225   ar
    99   121   119    1
   100   190   191    1
   101   191   192    2
   102   117   118    2
   103   217   216    1
   104    81    80   ar
   105   119   120    1
   106    78    77    2
   107   227   228    1
   108   194   192    1
   109   192   193    1
   110   228   229    1
   111   228   231    1
   112   226   225    1
   113   220   219    1
   114   220   221   ar
   115   219   216    1
   116    80    79    1
   117    80    82   ar
   118   225   223   ar
   119    76    77    1
   120    76    79    1
   121    76    75    1
   122   216   215    1
   123    77    83   am
   124   229   230    2
   125   237   235    1
   126   231   232    1
   127   232   233    1
   128   234   235    2
   129   234   233    1
   130   221   223   ar
   131   235   236    1
   132    19    18   ar
   133    19    17   ar
   134   126   127    1
   135    83    84    1
   136    63    62    1
   137    74    72    1
   138    61    60    2
   139    84    85    1
   140    84    87    1
   141    85    86    2
   142    18    16   ar
   143    17    15   ar
   144    89    88   ar
   145    62    59    1
   146   128   127    1
   147   128   129    2
   148   130   127    1
   149   130   131    1
   150   132   131    1
   151    59    60    1
   152    59    58    1
   153    60    64   am
   154   131   133    1
   155    72    73    1
   156    72    71    2
   157   140   139    1
   158    87    88    1
   159    88    90   ar
   160    16    14   ar
   161    15    14   ar
   162    67    66    2
   163   138   139    1
   164   138   135    1
   165    64    65    1
   166    71    70    1
   167    14    13    1
   168   137   136    2
   169    44    42    1
   170    65    66    1
   171    65    68    1
   172   139   141    1
   173   136   135    1
   174    30    29   ar
   175    30    28   ar
   176   135   134    1
   177    29    27   ar
   178    41    40    2
   179    54    52   ar
   180    54    56   ar
   181    57    56    1
   182    70    69    1
   183    28    26   ar
   184    68    69    1
   185    13    10    1
   186    52    51   ar
   187    42    43    1
   188    42    39    1
   189    49    48    2
   190    56    55   ar
   191    45    43    1
   192    40    39    1
   193    40    46   am
   194     9    10    1
   195    47    48    1
   196    47    46    1
   197    47    50    1
   198    27    25   ar
   199    10    11    1
   200    39    38    1
   201    51    50    1
   202    51    53   ar
   203    55    53   ar
   204    26    25   ar
   205    25    24    1
   206    11    12    2
   207    36    35    1
   208     8     7    1
   209    37    35    1
   210    34    33    2
   211    24    21    1
   212    35    32    1
   213    32    33    1
   214    32    31    1
   215    20    21    1
   216     6     7    1
   217     6     5    1
   218    21    22    1
   219     4     3    2
   220     2     5    1
   221     2     3    1
   222     2     1    1
   223    22    23    2
