@<TRIPOS>MOLECULE
tmp/3ad4A01.pdb
 162 150 0 0 0
SMALL
GASTEIGER

@<TRIPOS>ATOM
      1  N        -31.9570    7.5630   -2.5440 N.3    19  GLU19      -0.1245
      2  CA       -32.7200    6.3230   -2.6190 C.3    19  GLU19       0.1567
      3  C        -31.8560    5.1040   -2.2450 C.2    19  GLU19       0.2260
      4  O        -30.8070    4.8390   -2.8440 O.2    19  GLU19      -0.2867
      5  CB       -33.2840    6.1470   -4.0340 C.3    19  GLU19       0.0388
      6  CG       -34.5200    5.2630   -4.0820 C.3    19  GLU19       0.1160
      7  CD       -34.8480    4.6950   -5.4630 C.2    19  GLU19       0.3649
      8  OE1      -34.8200    5.4300   -6.4870 O.co2  19  GLU19      -0.2457
      9  OE2      -35.1740    3.4910   -5.5010 O.co2  19  GLU19      -0.2457
     10  N        -30.7320    1.5550   -2.4400 N.3    21  LEU21      -0.1245
     11  CA       -30.8660    0.5480   -3.4910 C.3    21  LEU21       0.1561
     12  C        -30.6880   -0.8760   -2.9620 C.2    21  LEU21       0.2260
     13  O        -31.2420   -1.8400   -3.5280 O.2    21  LEU21      -0.2867
     14  CB       -29.8820    0.8230   -4.6250 C.3    21  LEU21       0.0270
     15  CG       -30.0730    2.1410   -5.3850 C.3    21  LEU21       0.0019
     16  CD1      -29.2490    2.0700   -6.5970 C.3    21  LEU21       0.0001
     17  CD2      -31.5440    2.4470   -5.7540 C.3    21  LEU21       0.0001
     18  N        -26.1530    0.2530   -0.2790 N.3    29  VAL29      -0.1245
     19  CA       -25.9320    0.9130   -1.5510 C.3    29  VAL29       0.1561
     20  C        -27.0680    1.8870   -1.8190 C.2    29  VAL29       0.2260
     21  O        -28.2230    1.4960   -1.7740 O.2    29  VAL29      -0.2867
     22  CB       -25.7930   -0.0880   -2.7050 C.3    29  VAL29       0.0252
     23  CG1      -25.6410    0.6430   -4.0780 C.3    29  VAL29       0.0019
     24  CG2      -24.5690   -0.8950   -2.5010 C.3    29  VAL29       0.0019
     25  N        -23.7500    6.2450   -7.4830 N.3    41  ALA41      -0.1245
     26  CA       -24.0860    5.2210   -6.5190 C.3    41  ALA41       0.1562
     27  C        -23.1410    5.4160   -5.3620 C.2    41  ALA41       0.2260
     28  O        -21.9640    5.7140   -5.5860 O.2    41  ALA41      -0.2867
     29  CB       -23.9130    3.8120   -7.1400 C.3    41  ALA41       0.0290
     30  N        -21.7490    3.4370   -1.8990 N.3    43  LYS43      -0.1245
     31  CA       -21.6940    2.2420   -1.0340 C.3    43  LYS43       0.1561
     32  C        -21.0890    2.6220    0.3230 C.2    43  LYS43       0.2260
     33  O        -20.0270    3.2670    0.3840 O.2    43  LYS43      -0.2867
     34  CB       -20.9160    1.0930   -1.7090 C.3    43  LYS43       0.0271
     35  CG       -20.7910   -0.1200   -0.8380 C.3    43  LYS43       0.0035
     36  CD       -20.5940   -1.4360   -1.5990 C.3    43  LYS43       0.0206
     37  CE       -19.1370   -1.8530   -1.7140 C.3    43  LYS43       0.1093
     38  NZ       -19.0280   -3.2900   -2.2000 N.3    43  LYS43      -0.1314
     39  N        -11.1420   -2.1950   -2.3220 N.3    58  GLU58      -0.1245
     40  CA       -11.9240   -2.1940   -3.5920 C.3    58  GLU58       0.1567
     41  C        -11.7070   -0.8750   -4.3660 C.2    58  GLU58       0.2260
     42  O        -11.3920   -0.8750   -5.5610 O.2    58  GLU58      -0.2867
     43  CB       -13.4050   -2.3600   -3.2980 C.3    58  GLU58       0.0388
     44  CG       -14.1900   -2.7800   -4.5060 C.3    58  GLU58       0.1160
     45  CD       -15.6510   -2.9240   -4.2130 C.2    58  GLU58       0.3649
     46  OE1      -16.0590   -2.7640   -3.0520 O.co2  58  GLU58      -0.2457
     47  OE2      -16.4110   -3.1880   -5.1560 O.co2  58  GLU58      -0.2457
     48  N         -9.7770    0.0020   -8.0570 N.3    62  MET62      -0.1245
     49  CA       -10.4460    0.7310   -9.1490 C.3    62  MET62       0.1570
     50  C         -9.6440    1.9820   -9.5600 C.2    62  MET62       0.2261
     51  O         -9.8000    2.4710  -10.6720 O.2    62  MET62      -0.2867
     52  CB       -11.9050    1.0560   -8.8350 C.3    62  MET62       0.0387
     53  CG       -12.7270   -0.1510   -8.4510 C.3    62  MET62       0.0595
     54  SD       -14.3370    0.2020   -7.7260 S.3    62  MET62      -0.1393
     55  CE       -15.2620    0.7230   -9.1890 C.3    62  MET62       0.0692
     56  N        -17.0400   -0.0770  -14.5850 N.3    71  VAL71      -0.1245
     57  CA       -17.6520    0.8870  -13.6150 C.3    71  VAL71       0.1561
     58  C        -16.5070    1.6740  -12.9800 C.2    71  VAL71       0.2260
     59  O        -15.5970    1.0980  -12.3670 O.2    71  VAL71      -0.2867
     60  CB       -18.5540    0.1770  -12.5120 C.3    71  VAL71       0.0252
     61  CG1      -19.1470    1.1780  -11.4740 C.3    71  VAL71       0.0019
     62  CG2      -19.7030   -0.5710  -13.1690 C.3    71  VAL71       0.0019
     63  N        -17.5900    4.4170   -0.5610 N.3    84  ILE84      -0.1245
     64  CA       -17.0140    4.2830   -1.9020 C.3    84  ILE84       0.1561
     65  C        -18.0540    4.7500   -2.9300 C.2    84  ILE84       0.2260
     66  O        -19.1440    4.1740   -3.0130 O.2    84  ILE84      -0.2867
     67  CB       -16.6400    2.8420   -2.2660 C.3    84  ILE84       0.0252
     68  CG1      -15.4660    2.3660   -1.4140 C.3    84  ILE84       0.0019
     69  CG2      -16.2990    2.7360   -3.7690 C.3    84  ILE84       0.0019
     70  CD1      -15.1790    0.8740   -1.6400 C.3    84  ILE84       0.0001
     71  N        -19.2260    5.4780   -6.8230 N.3    86  THR86      -0.1203
     72  CA       -18.9320    5.0050   -8.1850 C.3    86  THR86       0.1994
     73  C        -19.9440    5.5640   -9.2380 C.2    86  THR86       0.2618
     74  O        -20.9350    6.2010   -8.9030 O.2    86  THR86      -0.2717
     75  CB       -18.9250    3.4330   -8.2360 C.3    86  THR86       0.1784
     76  OG1      -20.2370    2.9660   -7.9090 O.3    86  THR86      -0.2211
     77  CG2      -17.9310    2.7750   -7.2310 C.3    86  THR86       0.0376
     78  N        -19.6400    5.3190  -10.5110 N.am   87  GLU87      -0.1965
     79  CA       -20.4890    5.5730  -11.6820 C.3    87  GLU87       0.1733
     80  C        -21.8910    4.9530  -11.5030 C.2    87  GLU87       0.2616
     81  O        -22.0160    3.7750  -11.2400 O.2    87  GLU87      -0.2715
     82  CB       -19.7890    4.9620  -12.9170 C.3    87  GLU87       0.0429
     83  CG       -20.3440    5.3730  -14.2840 C.3    87  GLU87       0.1163
     84  CD       -19.5200    4.8670  -15.4590 C.2    87  GLU87       0.3649
     85  OE1      -18.6230    4.0080  -15.2190 O.co2  87  GLU87      -0.2457
     86  OE2      -19.7560    5.3320  -16.6290 O.co2  87  GLU87      -0.2457
     87  N        -22.9340    5.7540  -11.6620 N.am   88  TYR88      -0.1960
     88  CA       -24.3010    5.2480  -11.5340 C.3    88  TYR88       0.1771
     89  C        -24.7670    4.5350  -12.8210 C.2    88  TYR88       0.2619
     90  O        -24.6170    5.0670  -13.9370 O.2    88  TYR88      -0.2715
     91  CB       -25.2610    6.3930  -11.1340 C.3    88  TYR88       0.0574
     92  CG       -26.6810    5.9280  -10.8710 C.ar   88  TYR88      -0.0198
     93  CD1      -26.9810    5.2300   -9.7060 C.ar   88  TYR88      -0.0009
     94  CD2      -27.7050    6.1310  -11.8040 C.ar   88  TYR88      -0.0009
     95  CE1      -28.2630    4.7590   -9.4520 C.ar   88  TYR88       0.0417
     96  CE2      -29.0280    5.6400  -11.5490 C.ar   88  TYR88       0.0417
     97  CZ       -29.2890    4.9610  -10.3650 C.ar   88  TYR88       0.1957
     98  OH       -30.5550    4.4510  -10.0250 O.3    88  TYR88      -0.2866
     99  N        -25.3130    3.3300  -12.6930 N.am   89  MET89      -0.1963
    100  CA       -25.7620    2.5900  -13.8620 C.3    89  MET89       0.1736
    101  C        -27.2980    2.4480  -13.7850 C.2    89  MET89       0.2616
    102  O        -27.8410    1.6900  -12.9770 O.2    89  MET89      -0.2715
    103  CB       -25.0450    1.2470  -13.9860 C.3    89  MET89       0.0427
    104  CG       -23.4950    1.3200  -14.0300 C.3    89  MET89       0.0599
    105  SD       -22.8140    2.1540  -15.4470 S.3    89  MET89      -0.1393
    106  CE       -23.3300    1.0120  -16.7510 C.3    89  MET89       0.0692
    107  N        -27.9820    3.1630  -14.6580 N.am   90  GLU90      -0.1963
    108  CA       -29.3780    3.4550  -14.4720 C.3    90  GLU90       0.1733
    109  C        -30.2250    2.1770  -14.5960 C.2    90  GLU90       0.2616
    110  O        -31.2110    2.0360  -13.8930 O.2    90  GLU90      -0.2715
    111  CB       -29.8280    4.5600  -15.4310 C.3    90  GLU90       0.0429
    112  CG       -31.3120    4.8980  -15.3010 C.3    90  GLU90       0.1163
    113  CD       -31.6480    5.8190  -14.0930 C.2    90  GLU90       0.3649
    114  OE1      -31.0480    6.9230  -13.9920 O.co2  90  GLU90      -0.2457
    115  OE2      -32.5260    5.4330  -13.2640 O.co2  90  GLU90      -0.2457
    116  N        -29.7940    1.2080  -15.4060 N.am   91  ASN91      -0.1958
    117  CA       -30.5480   -0.0330  -15.4940 C.3    91  ASN91       0.1819
    118  C        -30.1340   -1.1730  -14.5430 C.2    91  ASN91       0.2622
    119  O        -30.5950   -2.3060  -14.6870 O.2    91  ASN91      -0.2715
    120  CB       -30.6870   -0.4690  -16.9660 C.3    91  ASN91       0.1195
    121  CG       -31.7890    0.3020  -17.6640 C.2    91  ASN91       0.2630
    122  OD1      -32.8470    0.5480  -17.0670 O.2    91  ASN91      -0.2716
    123  ND2      -31.5380    0.7290  -18.8920 N.am   91  ASN91      -0.0877
    124  N        -29.3230   -0.8520  -13.5390 N.am   92  GLY92      -0.1940
    125  CA       -29.0280   -1.8090  -12.4770 C.3    92  GLY92       0.2014
    126  C        -28.2610   -3.0200  -12.9550 C.2    92  GLY92       0.2639
    127  O        -27.4610   -2.9390  -13.8810 O.2    92  GLY92      -0.2714
    128  N        -28.4870   -4.1560  -12.3290 N.am   93  SER93      -0.1949
    129  CA       -27.6830   -5.2820  -12.7030 C.3    93  SER93       0.1924
    130  C        -28.2380   -6.0520  -13.9310 C.2    93  SER93       0.2314
    131  O        -29.4650   -6.0390  -14.1650 O.2    93  SER93      -0.2863
    132  CB       -27.4470   -6.1620  -11.4990 C.3    93  SER93       0.2116
    133  OG       -28.3540   -7.2080  -11.4600 O.3    93  SER93      -0.2180
    134  N        -30.9680   -8.5570  -13.2820 N.3    96  ASP96      -0.1239
    135  CA       -32.3040   -8.0340  -13.0140 C.3    96  ASP96       0.1674
    136  C        -32.8650   -7.4560  -14.3050 C.2    96  ASP96       0.2266
    137  O        -34.0450   -7.6300  -14.6080 O.2    96  ASP96      -0.2867
    138  CB       -32.3480   -6.9430  -11.9140 C.3    96  ASP96       0.1410
    139  CG       -31.7680   -7.4100  -10.5790 C.2    96  ASP96       0.3668
    140  OD1      -32.0340   -8.5260  -10.1360 O.co2  96  ASP96      -0.2456
    141  OD2      -31.0130   -6.6460   -9.9560 O.co2  96  ASP96      -0.2456
    142  N        -23.2460   -4.2420  -14.9190 N.3   141  LEU141     -0.1245
    143  CA       -24.2850   -3.2360  -14.7280 C.3   141  LEU141      0.1561
    144  C        -24.6540   -2.6860  -16.1400 C.2   141  LEU141      0.2260
    145  O        -23.8430   -2.7500  -17.0820 O.2   141  LEU141     -0.2867
    146  CB       -23.8690   -2.1410  -13.6750 C.3   141  LEU141      0.0270
    147  CG       -23.5410   -2.6100  -12.2450 C.3   141  LEU141      0.0019
    148  CD1      -23.1710   -1.4520  -11.2190 C.3   141  LEU141      0.0001
    149  CD2      -24.6950   -3.4310  -11.6410 C.3   141  LEU141      0.0001
    150  N        -18.4620   -4.7290  -13.0380 N.3   151  ALA151     -0.1231
    151  CA       -18.5240   -4.0730  -11.7470 C.3   151  ALA151      0.1694
    152  C        -18.0710   -5.0250  -10.6540 C.2   151  ALA151      0.2592
    153  O        -17.7750   -6.2050  -10.9180 O.2   151  ALA151     -0.2718
    154  CB       -19.9580   -3.6100  -11.4720 C.3   151  ALA151      0.0304
    155  N        -18.0590   -4.5080   -9.4280 N.am  152  ASP152     -0.1974
    156  CA       -17.7150   -5.2690   -8.2110 C.3   152  ASP152      0.1709
    157  C        -16.3530   -5.9370   -8.2610 C.2   152  ASP152      0.2293
    158  O        -16.2170   -7.1100   -8.5770 O.2   152  ASP152     -0.2864
    159  CB       -18.7620   -6.2820   -7.7540 C.3   152  ASP152      0.1436
    160  CG       -18.4640   -6.7900   -6.2770 C.2   152  ASP152      0.3671
    161  OD1      -17.4460   -6.3250   -5.6550 O.co2 152  ASP152     -0.2456
    162  OD2      -19.2320   -7.6290   -5.7310 O.co2 152  ASP152     -0.2456
@<TRIPOS>BOND
     1   123   121   am
     2   121   122    2
     3   121   120    1
     4   145   144    2
     5   120   117    1
     6   106   105    1
     7    86    84   ar
     8   144   143    1
     9   117   116    1
    10   117   118    1
    11    84    85   ar
    12    84    83    1
    13   105   104    1
    14   111   112    1
    15   111   108    1
    16   116   109   am
    17   112   113    1
    18   142   143    1
    19   143   146    1
    20   119   118    2
    21   107   108    1
    22   107   101   am
    23   137   136    2
    24   109   108    1
    25   109   110    2
    26    56    57    1
    27   118   124   am
    28   136   135    1
    29    83    82    1
    30   131   130    2
    31   113   114   ar
    32   113   115   ar
    33   104   103    1
    34   103   100    1
    35    90    89    2
    36   130   129    1
    37   127   126    2
    38   100   101    1
    39   100    99    1
    40   101   102    2
    41   146   147    1
    42    57    58    1
    43    57    60    1
    44   124   125    1
    45   134   135    1
    46    62    60    1
    47   150   151    1
    48   135   138    1
    49    58    59    2
    50   126   125    1
    51   126   128   am
    52    82    79    1
    53    89    99   am
    54    89    88    1
    55   129   128    1
    56   129   132    1
    57    60    61    1
    58   147   149    1
    59   147   148    1
    60   138   139    1
    61    94    96   ar
    62    94    92   ar
    63   151   154    1
    64   151   152    1
    65    79    80    1
    66    79    78    1
    67    87    88    1
    68    87    80   am
    69    96    97   ar
    70    88    91    1
    71    80    81    2
    72   132   133    1
    73    91    92    1
    74   153   152    2
    75    92    93   ar
    76    51    50    2
    77   152   155   am
    78   139   140   ar
    79   139   141   ar
    80    78    73   am
    81    97    98    1
    82    97    95   ar
    83    93    95   ar
    84    50    49    1
    85   155   156    1
    86    73    74    2
    87    73    72    1
    88    55    54    1
    89    49    52    1
    90    49    48    1
    91    52    53    1
    92   158   157    2
    93    53    54    1
    94   157   156    1
    95    75    72    1
    96    75    76    1
    97    75    77    1
    98   156   159    1
    99    72    71    1
   100   159   160    1
   101    25    26    1
   102    29    26    1
   103    16    15    1
   104    26    27    1
   105     8     7   ar
   106   160   162   ar
   107   160   161   ar
   108    17    15    1
   109    28    27    2
   110    42    41    2
   111     9     7   ar
   112     7     6    1
   113    15    14    1
   114    47    45   ar
   115    14    11    1
   116    44    45    1
   117    44    43    1
   118    41    40    1
   119    45    46   ar
   120     6     5    1
   121    23    22    1
   122     5     2    1
   123    69    67    1
   124    40    43    1
   125    40    39    1
   126    13    12    2
   127    11    12    1
   128    11    10    1
   129    66    65    2
   130    65    64    1
   131     4     3    2
   132    22    24    1
   133    22    19    1
   134     2     1    1
   135     2     3    1
   136    67    64    1
   137    67    68    1
   138    38    37    1
   139    64    63    1
   140    30    31    1
   141    20    21    2
   142    20    19    1
   143    37    36    1
   144    34    31    1
   145    34    35    1
   146    70    68    1
   147    36    35    1
   148    19    18    1
   149    31    32    1
   150    32    33    2
