@<TRIPOS>MOLECULE
tmp/3ad5A01.pdb
 174 161 0 0 0
SMALL
GASTEIGER

@<TRIPOS>ATOM
      1  N        -10.6930   -7.7130    2.3700 N.3    20  GLU20      -0.1245
      2  CA       -11.4970   -6.5100    2.3660 C.3    20  GLU20       0.1567
      3  C        -10.6520   -5.2980    2.0220 C.2    20  GLU20       0.2260
      4  O         -9.6780   -4.9950    2.7040 O.2    20  GLU20      -0.2867
      5  CB       -12.1900   -6.3220    3.7220 C.3    20  GLU20       0.0388
      6  CG       -12.9090   -4.9750    3.8720 C.3    20  GLU20       0.1160
      7  CD       -13.4740   -4.7160    5.2700 C.2    20  GLU20       0.3649
      8  OE1      -13.3340   -5.5730    6.1740 O.co2  20  GLU20      -0.2457
      9  OE2      -14.0720   -3.6390    5.4560 O.co2  20  GLU20      -0.2457
     10  N         -9.6710   -1.5900    2.2810 N.3    22  LEU22      -0.1231
     11  CA        -9.8440   -0.5740    3.3110 C.3    22  LEU22       0.1693
     12  C         -9.6410    0.8260    2.7460 C.2    22  LEU22       0.2592
     13  O        -10.1850    1.7930    3.2680 O.2    22  LEU22      -0.2718
     14  CB        -8.8770   -0.7980    4.4840 C.3    22  LEU22       0.0284
     15  CG        -8.9530   -2.1590    5.1710 C.3    22  LEU22       0.0019
     16  CD1       -7.9360   -2.2160    6.2810 C.3    22  LEU22       0.0001
     17  CD2      -10.3560   -2.4160    5.7340 C.3    22  LEU22       0.0001
     18  N         -8.8320    0.9290    1.6970 N.am   23  GLY23      -0.1957
     19  CA        -8.5770    2.2140    1.0570 C.3    23  GLY23       0.1869
     20  C         -8.0210    2.0270   -0.3410 C.2    23  GLY23       0.2309
     21  O         -7.4880    0.9680   -0.6810 O.2    23  GLY23      -0.2863
     22  N         -5.0470   -0.4570    0.1180 N.3    30  VAL30      -0.1245
     23  CA        -4.7900   -1.1110    1.3850 C.3    30  VAL30       0.1561
     24  C         -5.9150   -2.0720    1.7060 C.2    30  VAL30       0.2260
     25  O         -7.1000   -1.7100    1.6250 O.2    30  VAL30      -0.2867
     26  CB        -4.6050   -0.0910    2.5060 C.3    30  VAL30       0.0252
     27  CG1       -4.4250   -0.8170    3.8530 C.3    30  VAL30       0.0019
     28  CG2       -3.4020    0.8070    2.1770 C.3    30  VAL30       0.0019
     29  N         -2.5080   -6.3950    7.4050 N.3    42  ALA42      -0.1245
     30  CA        -2.8500   -5.3450    6.4520 C.3    42  ALA42       0.1562
     31  C         -1.9130   -5.4580    5.2550 C.2    42  ALA42       0.2260
     32  O         -0.7080   -5.6950    5.4220 O.2    42  ALA42      -0.2867
     33  CB        -2.7250   -3.9760    7.1030 C.3    42  ALA42       0.0290
     34  N         -0.5780   -3.5910    1.7970 N.3    44  LYS44      -0.1245
     35  CA        -0.5170   -2.3690    0.9870 C.3    44  LYS44       0.1561
     36  C          0.0940   -2.7020   -0.3570 C.2    44  LYS44       0.2260
     37  O          1.2150   -3.2120   -0.4080 O.2    44  LYS44      -0.2867
     38  CB         0.2970   -1.2670    1.6780 C.3    44  LYS44       0.0271
     39  CG         0.2530    0.0570    0.8940 C.3    44  LYS44       0.0035
     40  CD         0.6980    1.2530    1.7310 C.3    44  LYS44       0.0206
     41  CE         2.2000    1.3410    1.8210 C.3    44  LYS44       0.1093
     42  NZ         2.6080    2.5680    2.5730 N.3    44  LYS44      -0.1314
     43  N         10.1090    2.2870    2.2840 N.3    59  GLU59      -0.1245
     44  CA         9.3790    2.2790    3.5480 C.3    59  GLU59       0.1567
     45  C          9.5480    0.9450    4.3000 C.2    59  GLU59       0.2260
     46  O          9.8200    0.9310    5.4960 O.2    59  GLU59      -0.2867
     47  CB         7.8900    2.5520    3.3380 C.3    59  GLU59       0.0388
     48  CG         7.1200    2.5300    4.6700 C.3    59  GLU59       0.1160
     49  CD         5.6780    2.9450    4.5290 C.2    59  GLU59       0.3649
     50  OE1        5.1340    2.8630    3.4030 O.co2  59  GLU59      -0.2457
     51  OE2        5.0950    3.3490    5.5580 O.co2  59  GLU59      -0.2457
     52  N         11.4100    0.0260    8.0110 N.3    63  MET63      -0.1245
     53  CA        10.7060   -0.6820    9.0830 C.3    63  MET63       0.1570
     54  C         11.5150   -1.8760    9.5840 C.2    63  MET63       0.2261
     55  O         11.4270   -2.2270   10.7540 O.2    63  MET63      -0.2867
     56  CB         9.3230   -1.1220    8.6420 C.3    63  MET63       0.0387
     57  CG         8.4150    0.0770    8.3350 C.3    63  MET63       0.0595
     58  SD         6.7900   -0.3630    7.7210 S.3    63  MET63      -0.1393
     59  CE         6.0300   -0.9650    9.2340 C.3    63  MET63       0.0692
     60  N          4.0250    0.0320   14.4610 N.3    72  VAL72      -0.1245
     61  CA         3.4490   -0.9340   13.5360 C.3    72  VAL72       0.1561
     62  C          4.5870   -1.7450   12.9490 C.2    72  VAL72       0.2260
     63  O          5.5460   -1.1890   12.3920 O.2    72  VAL72      -0.2867
     64  CB         2.6030   -0.2270   12.4340 C.3    72  VAL72       0.0252
     65  CG1        2.2160   -1.2000   11.3180 C.3    72  VAL72       0.0019
     66  CG2        1.3340    0.4010   13.0770 C.3    72  VAL72       0.0019
     67  N          3.4970   -4.5360    0.5550 N.3    85  ILE85      -0.1245
     68  CA         4.0950   -4.3740    1.8730 C.3    85  ILE85       0.1561
     69  C          3.0630   -4.8360    2.8870 C.2    85  ILE85       0.2260
     70  O          1.9550   -4.2910    2.9500 O.2    85  ILE85      -0.2867
     71  CB         4.4260   -2.9290    2.1880 C.3    85  ILE85       0.0252
     72  CG1        5.5940   -2.4540    1.3180 C.3    85  ILE85       0.0019
     73  CG2        4.7890   -2.7870    3.6940 C.3    85  ILE85       0.0019
     74  CD1        5.8810   -0.9400    1.4480 C.3    85  ILE85       0.0001
     75  N          1.8330   -5.5620    6.7510 N.3    87  THR87      -0.1203
     76  CA         2.1260   -5.0130    8.0770 C.3    87  THR87       0.1994
     77  C          1.1300   -5.4920    9.1150 C.2    87  THR87       0.2618
     78  O          0.1270   -6.1450    8.7820 O.2    87  THR87      -0.2717
     79  CB         2.1240   -3.4550    8.0760 C.3    87  THR87       0.1784
     80  OG1        0.8430   -2.9770    7.6340 O.3    87  THR87      -0.2211
     81  CG2        3.2290   -2.8990    7.1500 C.3    87  THR87       0.0376
     82  N          1.4900   -5.2750   10.3890 N.am   88  GLU88      -0.1965
     83  CA         0.6450   -5.5960   11.5510 C.3    88  GLU88       0.1733
     84  C         -0.7540   -4.9840   11.4340 C.2    88  GLU88       0.2616
     85  O         -0.9020   -3.7490   11.3550 O.2    88  GLU88      -0.2715
     86  CB         1.3350   -5.0540   12.8120 C.3    88  GLU88       0.0429
     87  CG         0.6800   -5.3560   14.1520 C.3    88  GLU88       0.1163
     88  CD         1.5470   -4.8850   15.3300 C.2    88  GLU88       0.3649
     89  OE1        2.4780   -4.0810   15.0900 O.co2  88  GLU88      -0.2457
     90  OE2        1.3580   -5.3640   16.4840 O.co2  88  GLU88      -0.2457
     91  N         -1.7760   -5.8240   11.5870 N.am   89  TYR89      -0.1960
     92  CA        -3.1460   -5.3430   11.4890 C.3    89  TYR89       0.1771
     93  C         -3.5750   -4.6520   12.7740 C.2    89  TYR89       0.2619
     94  O         -3.2760   -5.1260   13.8910 O.2    89  TYR89      -0.2715
     95  CB        -4.1160   -6.4830   11.1620 C.3    89  TYR89       0.0574
     96  CG        -5.5000   -5.9750   10.7780 C.ar   89  TYR89      -0.0198
     97  CD1       -5.7020   -5.3600    9.5580 C.ar   89  TYR89      -0.0009
     98  CD2       -6.5830   -6.1000   11.6320 C.ar   89  TYR89      -0.0009
     99  CE1       -6.9330   -4.9080    9.1800 C.ar   89  TYR89       0.0417
    100  CE2       -7.8340   -5.5810   11.2790 C.ar   89  TYR89       0.0417
    101  CZ        -8.0020   -5.0220   10.0300 C.ar   89  TYR89       0.1957
    102  OH        -9.2190   -4.4900    9.6160 O.3    89  TYR89      -0.2866
    103  N         -4.1460   -3.4650   12.6260 N.am   90  MET90      -0.1963
    104  CA        -4.5510   -2.6830   13.7830 C.3    90  MET90       0.1736
    105  C         -6.0850   -2.5440   13.7220 C.2    90  MET90       0.2616
    106  O         -6.6320   -1.8150   12.8980 O.2    90  MET90      -0.2715
    107  CB        -3.8440   -1.3200   13.7680 C.3    90  MET90       0.0427
    108  CG        -2.3050   -1.3950   13.8850 C.3    90  MET90       0.0599
    109  SD        -1.7310   -2.2220   15.3860 S.3    90  MET90      -0.1393
    110  CE        -2.2480   -1.0560   16.6390 C.3    90  MET90       0.0692
    111  N         -6.7650   -3.2390   14.6080 N.am   91  GLU91      -0.1963
    112  CA        -8.1820   -3.4810   14.4410 C.3    91  GLU91       0.1733
    113  C         -9.0250   -2.1980   14.4430 C.2    91  GLU91       0.2616
    114  O        -10.0470   -2.1340   13.7690 O.2    91  GLU91      -0.2715
    115  CB        -8.6750   -4.4700   15.5100 C.3    91  GLU91       0.0429
    116  CG       -10.0550   -5.0440   15.2200 C.3    91  GLU91       0.1163
    117  CD       -10.0060   -6.2670   14.3190 C.2    91  GLU91       0.3649
    118  OE1       -9.2890   -7.2460   14.6600 O.co2  91  GLU91      -0.2457
    119  OE2      -10.7250   -6.2660   13.2920 O.co2  91  GLU91      -0.2457
    120  N         -8.6170   -1.1900   15.2160 N.am   92  ASN92      -0.1958
    121  CA        -9.4430    0.0050   15.3610 C.3    92  ASN92       0.1819
    122  C         -9.0110    1.1480   14.4550 C.2    92  ASN92       0.2622
    123  O         -9.5050    2.2680   14.5750 O.2    92  ASN92      -0.2715
    124  CB        -9.5380    0.4420   16.8370 C.3    92  ASN92       0.1195
    125  CG       -10.6010   -0.3290   17.5910 C.2    92  ASN92       0.2630
    126  OD1      -11.7260   -0.5080   17.0990 O.2    92  ASN92      -0.2716
    127  ND2      -10.2330   -0.8730   18.7460 N.am   92  ASN92      -0.0877
    128  N         -8.1210    0.8450   13.5150 N.am   93  GLY93      -0.1940
    129  CA        -7.7770    1.8010   12.4520 C.3    93  GLY93       0.2014
    130  C         -7.0130    3.0160   12.9430 C.2    93  GLY93       0.2639
    131  O         -6.2950    2.9390   13.9530 O.2    93  GLY93      -0.2714
    132  N         -7.1540    4.1420   12.2400 N.am   94  SER94      -0.1949
    133  CA        -6.4160    5.3450   12.6370 C.3    94  SER94       0.1924
    134  C         -7.0130    6.0280   13.8710 C.2    94  SER94       0.2314
    135  O         -8.2350    6.0000   14.0870 O.2    94  SER94      -0.2863
    136  CB        -6.3240    6.3340   11.4740 C.3    94  SER94       0.2116
    137  OG        -7.5020    7.1050   11.3890 O.3    94  SER94      -0.2180
    138  N         -9.7460    8.5780   13.1600 N.3    97  ASP97      -0.1239
    139  CA       -11.0720    7.9690   12.9210 C.3    97  ASP97       0.1674
    140  C        -11.6470    7.3170   14.1840 C.2    97  ASP97       0.2266
    141  O        -12.8350    7.5030   14.5210 O.2    97  ASP97      -0.2867
    142  CB       -11.0510    6.9240   11.7910 C.3    97  ASP97       0.1410
    143  CG       -10.5820    7.4870   10.4600 C.2    97  ASP97       0.3668
    144  OD1      -10.8940    8.6450   10.1280 O.co2  97  ASP97      -0.2456
    145  OD2       -9.9100    6.7490    9.7210 O.co2  97  ASP97      -0.2456
    146  N         -1.7410    9.1270   11.5160 N.3   140  ASN140     -0.1240
    147  CA        -0.6560    8.1440   11.4600 C.3   140  ASN140      0.1653
    148  C         -0.3450    7.4390   12.7860 C.2   140  ASN140      0.2266
    149  O          0.7230    6.8530   12.9520 O.2   140  ASN140     -0.2867
    150  CB         0.6050    8.7400   10.8210 C.3   140  ASN140      0.1155
    151  CG         0.3690    9.1530    9.3740 C.2   140  ASN140      0.2627
    152  OD1       -0.4400    8.5250    8.6690 O.2   140  ASN140     -0.2716
    153  ND2        1.0230   10.2270    8.9400 N.am  140  ASN140     -0.0877
    154  N         -2.1140    4.2230   14.7640 N.3   142  LEU142     -0.1245
    155  CA        -3.1540    3.1970   14.6360 C.3   142  LEU142      0.1561
    156  C         -3.4660    2.6260   16.0200 C.2   142  LEU142      0.2260
    157  O         -2.6290    2.6610   16.9350 O.2   142  LEU142     -0.2867
    158  CB        -2.7700    2.0800   13.6400 C.3   142  LEU142      0.0270
    159  CG        -2.4200    2.5450   12.2220 C.3   142  LEU142      0.0019
    160  CD1       -2.0800    1.3780   11.2830 C.3   142  LEU142      0.0001
    161  CD2       -3.5760    3.3840   11.6590 C.3   142  LEU142      0.0001
    162  N          2.6200    4.6430   12.9600 N.3   152  ALA152     -0.1231
    163  CA         2.5420    4.0340   11.6350 C.3   152  ALA152      0.1694
    164  C          3.0150    4.9940   10.5460 C.2   152  ALA152      0.2592
    165  O          3.2300    6.1980   10.7940 O.2   152  ALA152     -0.2718
    166  CB         1.1020    3.6170   11.3230 C.3   152  ALA152      0.0304
    167  N          2.9760    4.4860    9.3120 N.am  153  ASP153     -0.1974
    168  CA         3.3240    5.2640    8.1110 C.3   153  ASP153      0.1709
    169  C          4.7290    5.8670    8.1500 C.2   153  ASP153      0.2293
    170  O          4.9220    7.0410    8.4920 O.2   153  ASP153     -0.2864
    171  CB         2.2890    6.3340    7.7800 C.3   153  ASP153      0.1436
    172  CG         2.4880    6.9110    6.3490 C.2   153  ASP153      0.3671
    173  OD1        3.5840    6.7080    5.7320 O.co2 153  ASP153     -0.2456
    174  OD2        1.5240    7.5000    5.8200 O.co2 153  ASP153     -0.2456
@<TRIPOS>BOND
     1    21    20    2
     2    37    36    2
     3    36    35    1
     4    20    19    1
     5    22    23    1
     6    67    68    1
     7    39    38    1
     8    39    40    1
     9    35    38    1
    10    35    34    1
    11    19    18    1
    12    72    74    1
    13    72    71    1
    14    23    24    1
    15    23    26    1
    16    25    24    2
    17    18    12   am
    18    40    41    1
    19    41    42    1
    20    68    71    1
    21    68    69    1
    22     3     2    1
    23     3     4    2
    24    28    26    1
    25    71    73    1
    26    10    11    1
    27    43    44    1
    28     2     1    1
    29     2     5    1
    30    26    27    1
    31    12    13    2
    32    12    11    1
    33    69    70    2
    34    11    14    1
    35    47    44    1
    36    47    48    1
    37    50    49   ar
    38    44    45    1
    39     5     6    1
    40     6     7    1
    41    45    46    2
    42    14    15    1
    43    49    48    1
    44    49    51   ar
    45    15    17    1
    46    15    16    1
    47    31    32    2
    48    31    30    1
    49     7     9   ar
    50     7     8   ar
    51   173   172   ar
    52   174   172   ar
    53   172   171    1
    54    30    33    1
    55    30    29    1
    56    75    76    1
    57    81    79    1
    58    80    79    1
    59    58    57    1
    60    58    59    1
    61   171   168    1
    62    52    53    1
    63    79    76    1
    64    76    77    1
    65   168   169    1
    66   168   167    1
    67   169   170    2
    68    57    56    1
    69    56    53    1
    70   152   151    2
    71    78    77    2
    72   153   151   am
    73    53    54    1
    74    77    82   am
    75    99    97   ar
    76    99   101   ar
    77   167   164   am
    78   151   150    1
    79    97    96   ar
    80    54    55    2
    81   102   101    1
    82   145   143   ar
    83   101   100   ar
    84   144   143   ar
    85    82    83    1
    86   143   142    1
    87   164   165    2
    88   164   163    1
    89    96    95    1
    90    96    98   ar
    91   150   147    1
    92    95    92    1
    93   100    98   ar
    94   160   159    1
    95    65    64    1
    96   166   163    1
    97    85    84    2
    98   137   136    1
    99    84    83    1
   100    84    91   am
   101   147   146    1
   102   147   148    1
   103   136   133    1
   104    92    91    1
   105    92    93    1
   106    83    86    1
   107   163   162    1
   108   161   159    1
   109   142   139    1
   110   159   158    1
   111   132   133    1
   112   132   130   am
   113    63    62    2
   114    64    66    1
   115    64    61    1
   116   129   130    1
   117   129   128    1
   118   103    93   am
   119   103   104    1
   120   133   134    1
   121    93    94    2
   122   148   149    2
   123    86    87    1
   124   106   105    2
   125   139   138    1
   126   139   140    1
   127   130   131    2
   128    62    61    1
   129   119   117   ar
   130   128   122   am
   131    61    60    1
   132   158   155    1
   133   105   104    1
   134   105   111   am
   135   107   104    1
   136   107   108    1
   137   114   113    2
   138   134   135    2
   139   108   109    1
   140    87    88    1
   141   140   141    2
   142   117   118   ar
   143   117   116    1
   144   112   113    1
   145   112   111    1
   146   112   115    1
   147   113   120   am
   148   122   123    2
   149   122   121    1
   150   155   154    1
   151   155   156    1
   152    89    88   ar
   153   120   121    1
   154   116   115    1
   155    88    90   ar
   156   121   124    1
   157   109   110    1
   158   156   157    2
   159   124   125    1
   160   126   125    2
   161   125   127   am
