@<TRIPOS>MOLECULE
tmp/3ad6A00.pdb
 150 140 0 0 0
SMALL
GASTEIGER

@<TRIPOS>ATOM
      1  N         32.0100   44.4400    2.4960 N.3    20  GLU20      -0.1245
      2  CA        32.7590   43.1840    2.4730 C.3    20  GLU20       0.1567
      3  C         31.8480   41.9780    2.1290 C.2    20  GLU20       0.2260
      4  O         30.8370   41.7180    2.7970 O.2    20  GLU20      -0.2867
      5  CB        33.4460   42.9720    3.8400 C.3    20  GLU20       0.0388
      6  CG        34.5060   41.8590    3.8700 C.3    20  GLU20       0.1160
      7  CD        34.8740   41.3900    5.2860 C.2    20  GLU20       0.3649
      8  OE1       34.6430   42.1120    6.2790 O.co2  20  GLU20      -0.2457
      9  OE2       35.3690   40.2580    5.4090 O.co2  20  GLU20      -0.2457
     10  N         30.7680   38.3750    2.4610 N.3    22  LEU22      -0.1245
     11  CA        30.9660   37.3050    3.4520 C.3    22  LEU22       0.1561
     12  C         30.7760   35.9280    2.8550 C.2    22  LEU22       0.2260
     13  O         31.3280   34.9520    3.3610 O.2    22  LEU22      -0.2867
     14  CB        30.0010   37.4520    4.6360 C.3    22  LEU22       0.0270
     15  CG        30.0550   38.7830    5.3520 C.3    22  LEU22       0.0019
     16  CD1       29.0100   38.7780    6.4750 C.3    22  LEU22       0.0001
     17  CD2       31.4900   39.0680    5.8830 C.3    22  LEU22       0.0001
     18  N         26.2440   37.1660    0.1260 N.3    30  VAL30      -0.1245
     19  CA        25.9800   37.8080    1.4030 C.3    30  VAL30       0.1561
     20  C         27.1020   38.7620    1.7130 C.2    30  VAL30       0.2260
     21  O         28.2670   38.3890    1.6960 O.2    30  VAL30      -0.2867
     22  CB        25.8100   36.8040    2.5510 C.3    30  VAL30       0.0252
     23  CG1       25.5890   37.5580    3.8840 C.3    30  VAL30       0.0019
     24  CG2       24.6010   35.9260    2.2700 C.3    30  VAL30       0.0019
     25  N         23.6930   43.1230    7.4820 N.3    42  ALA42      -0.1245
     26  CA        24.0060   42.0750    6.4940 C.3    42  ALA42       0.1562
     27  C         23.0310   42.2250    5.3130 C.2    42  ALA42       0.2260
     28  O         21.8630   42.5380    5.5250 O.2    42  ALA42      -0.2867
     29  CB        23.9090   40.6660    7.1090 C.3    42  ALA42       0.0290
     30  N         21.6850   40.2520    1.8590 N.3    44  LYS44      -0.1245
     31  CA        21.6650   39.0370    1.0210 C.3    44  LYS44       0.1561
     32  C         21.0430   39.3520   -0.3460 C.2    44  LYS44       0.2260
     33  O         19.9540   39.9270   -0.4170 O.2    44  LYS44      -0.2867
     34  CB        20.9110   37.8950    1.7130 C.3    44  LYS44       0.0271
     35  CG        20.5940   36.7180    0.7580 C.3    44  LYS44       0.0035
     36  CD        20.3910   35.3840    1.4600 C.3    44  LYS44       0.0206
     37  CE        19.0030   35.2480    2.0410 C.3    44  LYS44       0.1093
     38  NZ        18.8320   33.8610    2.5900 N.3    44  LYS44      -0.1314
     39  N         17.0500   36.7720   14.5840 N.3    72  VAL72      -0.1245
     40  CA        17.6700   37.7120   13.6390 C.3    72  VAL72       0.1561
     41  C         16.5740   38.5090   12.9650 C.2    72  VAL72       0.2260
     42  O         15.6440   37.9510   12.3820 O.2    72  VAL72      -0.2867
     43  CB        18.5970   36.9790   12.5940 C.3    72  VAL72       0.0252
     44  CG1       18.9790   37.9000   11.3910 C.3    72  VAL72       0.0019
     45  CG2       19.8400   36.4640   13.2670 C.3    72  VAL72       0.0019
     46  N         19.3240   42.2950    6.8140 N.3    87  THR87      -0.1203
     47  CA        19.0440   41.7840    8.1590 C.3    87  THR87       0.1994
     48  C         20.0010   42.2760    9.2430 C.2    87  THR87       0.2618
     49  O         21.0460   42.8660    8.9560 O.2    87  THR87      -0.2717
     50  CB        18.9560   40.2130    8.2010 C.3    87  THR87       0.1784
     51  OG1       20.2050   39.6440    7.7770 O.3    87  THR87      -0.2211
     52  CG2       17.8210   39.6830    7.3030 C.3    87  THR87       0.0376
     53  N         19.5920   42.0600   10.4970 N.am   88  GLU88      -0.1965
     54  CA        20.4150   42.3040   11.6720 C.3    88  GLU88       0.1733
     55  C         21.8140   41.7170   11.5300 C.2    88  GLU88       0.2616
     56  O         21.9670   40.5240   11.3020 O.2    88  GLU88      -0.2715
     57  CB        19.7420   41.7010   12.9050 C.3    88  GLU88       0.0429
     58  CG        20.2340   42.2710   14.2170 C.3    88  GLU88       0.1163
     59  CD        19.4750   41.6980   15.4310 C.2    88  GLU88       0.3649
     60  OE1       18.5240   40.8800   15.2330 O.co2  88  GLU88      -0.2457
     61  OE2       19.7930   42.1370   16.5550 O.co2  88  GLU88      -0.2457
     62  N         22.8360   42.5590   11.6760 N.am   89  TYR89      -0.1960
     63  CA        24.2150   42.0970   11.5240 C.3    89  TYR89       0.1771
     64  C         24.6900   41.3970   12.8010 C.2    89  TYR89       0.2619
     65  O         24.4730   41.8800   13.9010 O.2    89  TYR89      -0.2715
     66  CB        25.1470   43.2420   11.1580 C.3    89  TYR89       0.0574
     67  CG        26.5320   42.7710   10.8450 C.ar   89  TYR89      -0.0198
     68  CD1       26.7940   42.1670    9.6310 C.ar   89  TYR89      -0.0009
     69  CD2       27.5750   42.9010   11.7570 C.ar   89  TYR89      -0.0009
     70  CE1       28.0420   41.7270    9.3060 C.ar   89  TYR89       0.0417
     71  CE2       28.8560   42.4260   11.4340 C.ar   89  TYR89       0.0417
     72  CZ        29.0730   41.8520   10.2000 C.ar   89  TYR89       0.1957
     73  OH        30.3060   41.3490    9.8010 O.3    89  TYR89      -0.2866
     74  N         25.3170   40.2440   12.6440 N.am   90  MET90      -0.1963
     75  CA        25.7540   39.4510   13.7790 C.3    90  MET90       0.1736
     76  C         27.2670   39.2710   13.6850 C.2    90  MET90       0.2616
     77  O         27.7820   38.5200   12.8400 O.2    90  MET90      -0.2715
     78  CB        25.0110   38.1040   13.8070 C.3    90  MET90       0.0427
     79  CG        23.5010   38.2010   13.9300 C.3    90  MET90       0.0599
     80  SD        22.9130   39.0250   15.4430 S.3    90  MET90      -0.1393
     81  CE        23.3620   37.7800   16.6490 C.3    90  MET90       0.0692
     82  N         27.9750   39.9770   14.5560 N.am   91  GLU91      -0.1963
     83  CA        29.3950   40.2010   14.3900 C.3    91  GLU91       0.1733
     84  C         30.2490   38.9420   14.4880 C.2    91  GLU91       0.2616
     85  O         31.2780   38.8570   13.8260 O.2    91  GLU91      -0.2715
     86  CB        29.9130   41.2590   15.3820 C.3    91  GLU91       0.0429
     87  CG        31.3980   41.5720   15.2340 C.3    91  GLU91       0.1163
     88  CD        31.6820   42.5480   14.0800 C.2    91  GLU91       0.3649
     89  OE1       31.0280   43.6210   14.0410 O.co2  91  GLU91      -0.2457
     90  OE2       32.5880   42.2680   13.2420 O.co2  91  GLU91      -0.2457
     91  N         29.8180   37.9540   15.2670 N.am   92  ASN92      -0.1958
     92  CA        30.6170   36.7260   15.3950 C.3    92  ASN92       0.1819
     93  C         30.1870   35.5990   14.4570 C.2    92  ASN92       0.2622
     94  O         30.6140   34.4540   14.6010 O.2    92  ASN92      -0.2715
     95  CB        30.7380   36.2740   16.8690 C.3    92  ASN92       0.1195
     96  CG        31.7980   37.0750   17.6190 C.2    92  ASN92       0.2630
     97  OD1       32.8940   37.3140   17.0750 O.2    92  ASN92      -0.2716
     98  ND2       31.4780   37.5350   18.8330 N.am   92  ASN92      -0.0877
     99  N         29.3510   35.9410   13.4800 N.am   93  GLY93      -0.1940
    100  CA        28.9800   34.9870   12.4160 C.3    93  GLY93       0.2014
    101  C         28.1930   33.7940   12.9220 C.2    93  GLY93       0.2639
    102  O         27.4890   33.8870   13.9310 O.2    93  GLY93      -0.2714
    103  N         28.3150   32.6600   12.2390 N.am   94  SER94      -0.1949
    104  CA        27.5610   31.4860   12.6370 C.3    94  SER94       0.1924
    105  C         28.1540   30.7460   13.8580 C.2    94  SER94       0.2314
    106  O         29.3650   30.7950   14.0840 O.2    94  SER94      -0.2863
    107  CB        27.3030   30.5710   11.4380 C.3    94  SER94       0.2116
    108  OG        28.1940   29.4820   11.3770 O.3    94  SER94      -0.2180
    109  N         30.9610   28.1960   13.2550 N.3    97  ASP97      -0.1239
    110  CA        32.2980   28.7610   12.9920 C.3    97  ASP97       0.1674
    111  C         32.9160   29.3720   14.2340 C.2    97  ASP97       0.2266
    112  O         34.0830   29.1350   14.5360 O.2    97  ASP97      -0.2867
    113  CB        32.2750   29.7970   11.8830 C.3    97  ASP97       0.1410
    114  CG        31.8570   29.2170   10.5660 C.2    97  ASP97       0.3668
    115  OD1       32.2460   28.0860   10.2700 O.co2  97  ASP97      -0.2456
    116  OD2       31.1030   29.8670    9.8300 O.co2  97  ASP97      -0.2456
    117  N         24.8750   25.8270   12.3830 N.3   139  ALA139     -0.1231
    118  CA        25.1340   26.6900   11.2340 C.3   139  ALA139      0.1694
    119  C         24.0810   27.8070   11.0750 C.2   139  ALA139      0.2592
    120  O         24.3840   28.8670   10.5080 O.2   139  ALA139     -0.2718
    121  CB        25.2580   25.8710    9.9140 C.3   139  ALA139      0.0304
    122  N         22.8610   27.5640   11.5580 N.am  140  ASN140     -0.1974
    123  CA        21.7810   28.5810   11.4730 C.3   140  ASN140      0.1688
    124  C         21.4650   29.3260   12.7850 C.2   140  ASN140      0.2292
    125  O         20.3710   29.8900   12.9700 O.2   140  ASN140     -0.2864
    126  CB        20.5370   28.0160   10.7910 C.3   140  ASN140      0.1181
    127  CG        20.8140   27.5860    9.3400 C.2   140  ASN140      0.2629
    128  OD1       21.6540   28.1840    8.6510 O.2   140  ASN140     -0.2716
    129  ND2       20.0980   26.5560    8.8740 N.am  140  ASN140     -0.0877
    130  N         23.3020   32.5120   14.8450 N.3   142  LEU142     -0.1245
    131  CA        24.3390   33.5270   14.7150 C.3   142  LEU142      0.1561
    132  C         24.7070   34.1080   16.0920 C.2   142  LEU142      0.2260
    133  O         23.9110   34.0550   17.0410 O.2   142  LEU142     -0.2867
    134  CB        23.9450   34.6270   13.6970 C.3   142  LEU142      0.0270
    135  CG        23.5010   34.1810   12.2880 C.3   142  LEU142      0.0019
    136  CD1       23.0970   35.3660   11.3800 C.3   142  LEU142      0.0001
    137  CD2       24.6450   33.4050   11.6110 C.3   142  LEU142      0.0001
    138  N         18.4610   32.0890   13.0110 N.3   152  ALA152     -0.1231
    139  CA        18.4970   32.6720   11.6840 C.3   152  ALA152      0.1694
    140  C         18.0270   31.6890   10.6010 C.2   152  ALA152      0.2592
    141  O         17.7950   30.4880   10.8640 O.2   152  ALA152     -0.2718
    142  CB        19.8930   33.1530   11.3700 C.3   152  ALA152      0.0304
    143  N         17.9470   32.2330    9.3800 N.am  153  ASP153     -0.1974
    144  CA        17.6730   31.5030    8.1500 C.3   153  ASP153      0.1709
    145  C         16.3090   30.8690    8.1680 C.2   153  ASP153      0.2293
    146  O         16.1510   29.7080    8.5160 O.2   153  ASP153     -0.2864
    147  CB        18.7470   30.4670    7.8370 C.3   153  ASP153      0.1436
    148  CG        18.5540   29.8300    6.4400 C.2   153  ASP153      0.3671
    149  OD1       17.4580   29.9930    5.8240 O.co2 153  ASP153     -0.2456
    150  OD2       19.5150   29.1790    5.9540 O.co2 153  ASP153     -0.2456
@<TRIPOS>BOND
     1    33    32    2
     2    32    31    1
     3    18    19    1
     4    35    36    1
     5    35    34    1
     6    31    34    1
     7    31    30    1
     8    19    20    1
     9    19    22    1
    10    36    37    1
    11    21    20    2
    12    37    38    1
    13     3     2    1
    14     3     4    2
    15    24    22    1
    16    10    11    1
    17     2     1    1
    18     2     5    1
    19    22    23    1
    20    12    13    2
    21    12    11    1
    22    11    14    1
    23     5     6    1
    24     6     7    1
    25    14    15    1
    26     7     9   ar
    27     7     8   ar
    28    27    28    2
    29    27    26    1
    30    15    17    1
    31    15    16    1
    32   149   148   ar
    33   150   148   ar
    34   148   147    1
    35    26    29    1
    36    26    25    1
    37    46    47    1
    38    52    50    1
    39    51    50    1
    40   147   144    1
    41   144   145    1
    42   144   143    1
    43    47    50    1
    44    47    48    1
    45   145   146    2
    46   128   127    2
    47   129   127   am
    48    49    48    2
    49    48    53   am
    50    70    68   ar
    51    70    72   ar
    52   127   126    1
    53   143   140   am
    54    68    67   ar
    55    73    72    1
    56   116   114   ar
    57   121   118    1
    58    72    71   ar
    59   115   114   ar
    60    53    54    1
    61   120   119    2
    62   114   113    1
    63   140   141    2
    64   140   139    1
    65   126   123    1
    66    67    66    1
    67    67    69   ar
    68   119   118    1
    69   119   122   am
    70    66    63    1
    71   118   117    1
    72    56    55    2
    73   142   139    1
    74   108   107    1
    75   136   135    1
    76    44    43    1
    77    71    69   ar
    78   107   104    1
    79   123   122    1
    80   123   124    1
    81    63    62    1
    82    63    64    1
    83    55    54    1
    84    55    62   am
    85   137   135    1
    86    54    57    1
    87   139   138    1
    88   113   110    1
    89   103   104    1
    90   103   101   am
    91   135   134    1
    92    42    41    2
    93   100   101    1
    94   100    99    1
    95    43    45    1
    96    43    40    1
    97   104   105    1
    98    74    64   am
    99    74    75    1
   100   124   125    2
   101    64    65    2
   102    77    76    2
   103    57    58    1
   104   101   102    2
   105    41    40    1
   106   110   109    1
   107   110   111    1
   108    90    88   ar
   109    99    93   am
   110    40    39    1
   111    76    75    1
   112    76    82   am
   113   134   131    1
   114    75    78    1
   115    78    79    1
   116    85    84    2
   117   105   106    2
   118    79    80    1
   119    89    88   ar
   120    88    87    1
   121    58    59    1
   122   111   112    2
   123    83    84    1
   124    83    82    1
   125    83    86    1
   126    93    94    2
   127    93    92    1
   128    84    91   am
   129   131   130    1
   130   131   132    1
   131    60    59   ar
   132    87    86    1
   133    91    92    1
   134    92    95    1
   135    59    61   ar
   136    80    81    1
   137   132   133    2
   138    95    96    1
   139    97    96    2
   140    96    98   am
