@<TRIPOS>MOLECULE
tmp/3addA00.pdb
 148 140 0 0 0
SMALL
GASTEIGER

@<TRIPOS>ATOM
      1  N         -1.9710  152.7570   55.9500 N.3    11  PRO11      -0.2102
      2  CA        -3.3700  152.9170   55.5380 C.3    11  PRO11       0.1504
      3  C         -3.7560  151.8460   54.5350 C.2    11  PRO11       0.2576
      4  O         -3.0230  151.5780   53.5860 O.2    11  PRO11      -0.2718
      5  CB        -3.3940  154.2970   54.9090 C.3    11  PRO11       0.0282
      6  CG        -2.3610  155.0450   55.7350 C.3    11  PRO11       0.0208
      7  CD        -1.2260  154.0170   55.8020 C.3    11  PRO11       0.0893
      8  N         -4.8940  151.2040   54.7780 N.am   12  GLY12      -0.1943
      9  CA        -5.3810  150.1680   53.8900 C.3    12  GLY12       0.2014
     10  C         -4.8250  148.7920   54.1430 C.2    12  GLY12       0.2639
     11  O         -5.1050  147.8650   53.3780 O.2    12  GLY12      -0.2714
     12  N         -4.0600  148.6380   55.2250 N.am   13  VAL13      -0.1963
     13  CA        -3.4650  147.3460   55.5440 C.3    13  VAL13       0.1727
     14  C         -4.5220  146.4340   56.1820 C.2    13  VAL13       0.2617
     15  O         -4.3990  145.2080   56.2070 O.2    13  VAL13      -0.2715
     16  CB        -2.2580  147.5500   56.5230 C.3    13  VAL13       0.0290
     17  CG1       -2.7550  147.7260   57.9290 C.3    13  VAL13       0.0023
     18  CG2       -1.2850  146.3950   56.4330 C.3    13  VAL13       0.0023
     19  N         -5.5750  147.0550   56.6960 N.am   14  GLY14      -0.1940
     20  CA        -6.6270  146.3050   57.3480 C.3    14  GLY14       0.2014
     21  C         -6.7020  146.5150   58.8590 C.2    14  GLY14       0.2639
     22  O         -7.2860  145.7040   59.5610 O.2    14  GLY14      -0.2714
     23  N         -6.1560  147.6080   59.3800 N.am   15  LYS15      -0.1963
     24  CA        -6.2330  147.8020   60.8250 C.3    15  LYS15       0.1728
     25  C         -7.6650  147.7660   61.3820 C.2    15  LYS15       0.2617
     26  O         -7.9640  147.0020   62.3090 O.2    15  LYS15      -0.2715
     27  CB        -5.5860  149.1250   61.2350 C.3    15  LYS15       0.0311
     28  CG        -4.1130  149.2130   60.9310 C.3    15  LYS15       0.0038
     29  CD        -3.5620  150.5110   61.4350 C.3    15  LYS15       0.0206
     30  CE        -4.2080  151.6660   60.7140 C.3    15  LYS15       0.1093
     31  NZ        -3.8980  151.6430   59.2400 N.3    15  LYS15      -0.1314
     32  N         -8.5570  148.5730   60.8120 N.am   16  SER16      -0.1936
     33  CA        -9.9200  148.6300   61.3270 C.3    16  SER16       0.2055
     34  C        -10.6550  147.3050   61.2770 C.2    16  SER16       0.2643
     35  O        -11.3680  146.9520   62.2040 O.2    16  SER16      -0.2714
     36  CB       -10.7000  149.7040   60.5850 C.3    16  SER16       0.2130
     37  OG       -10.1400  150.9590   60.9130 O.3    16  SER16      -0.2179
     38  N        -10.4580  146.5660   60.1990 N.am   17  THR17      -0.1950
     39  CA       -11.0980  145.2790   60.0230 C.3    17  THR17       0.1897
     40  C        -10.5420  144.2720   61.0060 C.2    17  THR17       0.2313
     41  O        -11.2550  143.4260   61.5470 O.2    17  THR17      -0.2863
     42  CB       -10.8520  144.7760   58.6030 C.3    17  THR17       0.1794
     43  OG1      -11.6750  145.5090   57.6930 O.3    17  THR17      -0.2208
     44  CG2      -11.1430  143.3040   58.4930 C.3    17  THR17       0.0378
     45  N         -9.1840  158.2840   64.1610 N.3    39  ASP39      -0.1239
     46  CA       -10.2770  158.4940   63.1890 C.3    39  ASP39       0.1674
     47  C        -11.6660  158.7930   63.7860 C.2    39  ASP39       0.2266
     48  O        -12.4340  159.5870   63.2140 O.2    39  ASP39      -0.2867
     49  CB       -10.3990  157.3240   62.2240 C.3    39  ASP39       0.1410
     50  CG        -9.3250  157.3500   61.1560 C.2    39  ASP39       0.3668
     51  OD1       -8.9410  158.4740   60.7380 O.co2  39  ASP39      -0.2456
     52  OD2       -8.8830  156.2610   60.7300 O.co2  39  ASP39      -0.2456
     53  N         -6.6450  151.4520   67.1350 N.3    76  ASP76      -0.1239
     54  CA        -6.6530  151.2900   65.6830 C.3    76  ASP76       0.1674
     55  C         -6.2030  152.5920   65.0310 C.2    76  ASP76       0.2266
     56  O         -7.0080  153.4500   64.6840 O.2    76  ASP76      -0.2867
     57  CB        -8.0590  150.8490   65.2450 C.3    76  ASP76       0.1410
     58  CG        -8.3230  151.0390   63.7640 C.2    76  ASP76       0.3668
     59  OD1       -7.4290  150.7440   62.9500 O.co2  76  ASP76      -0.2456
     60  OD2       -9.4460  151.4760   63.4100 O.co2  76  ASP76      -0.2456
     61  N         -2.6820  154.1810   62.5300 N.3    78  THR78      -0.1218
     62  CA        -1.4900  153.9180   61.7390 C.3    78  THR78       0.1862
     63  C         -0.2930  153.7680   62.6660 C.2    78  THR78       0.2287
     64  O          0.4720  152.8160   62.5340 O.2    78  THR78      -0.2866
     65  CB        -1.2210  155.0780   60.8000 C.3    78  THR78       0.1770
     66  OG1       -2.3450  155.2490   59.9250 O.3    78  THR78      -0.2211
     67  CG2        0.0140  154.8120   59.9780 C.3    78  THR78       0.0375
     68  N         -3.7120  148.9670   45.4530 N.3   112  ARG112     -0.1231
     69  CA        -4.9600  148.4580   44.9270 C.3   112  ARG112      0.1694
     70  C         -6.0740  148.8940   45.8690 C.2   112  ARG112      0.2591
     71  O         -7.0420  149.5250   45.4440 O.2   112  ARG112     -0.2718
     72  CB        -4.9020  146.9310   44.8460 C.3   112  ARG112      0.0321
     73  CG        -5.8170  146.3030   43.8100 C.3   112  ARG112      0.0489
     74  CD        -5.8550  144.8120   44.0310 C.3   112  ARG112      0.2205
     75  NE        -6.2000  144.5390   45.4230 N.pl3 112  ARG112     -0.0865
     76  CZ        -5.9120  143.4070   46.0540 C.cat 112  ARG112      0.5346
     77  NH1       -5.2720  142.4390   45.4090 N.pl3 112  ARG112      0.1354
     78  NH2       -6.2480  143.2480   47.3300 N.pl3 112  ARG112      0.1354
     79  N         -5.9240  148.5850   47.1560 N.am  113  ARG113     -0.1980
     80  CA        -6.9460  148.9470   48.1210 C.3   113  ARG113      0.1597
     81  C         -7.1500  150.4410   48.2170 C.2   113  ARG113      0.2287
     82  O         -8.2860  150.8910   48.4270 O.2   113  ARG113     -0.2864
     83  CB        -6.6180  148.3730   49.4950 C.3   113  ARG113      0.0334
     84  CG        -6.7370  146.8550   49.5650 C.3   113  ARG113      0.0492
     85  CD        -6.4150  146.4400   50.9660 C.3   113  ARG113      0.2205
     86  NE        -6.2060  145.0130   51.1690 N.pl3 113  ARG113     -0.0865
     87  CZ        -5.7670  144.5160   52.3210 C.cat 113  ARG113      0.5346
     88  NH1       -5.5080  145.3450   53.3270 N.pl3 113  ARG113      0.1354
     89  NH2       -5.5800  143.2080   52.4740 N.pl3 113  ARG113      0.1354
     90  N         -9.3380  151.4330   45.2990 N.3   116  GLU116     -0.1231
     91  CA       -10.7030  151.0090   45.5680 C.3   116  GLU116      0.1699
     92  C        -11.3770  151.9100   46.6010 C.2   116  GLU116      0.2592
     93  O        -12.5850  151.8360   46.8150 O.2   116  GLU116     -0.2718
     94  CB       -10.7080  149.5490   46.0320 C.3   116  GLU116      0.0402
     95  CG       -10.0170  148.6150   45.0320 C.3   116  GLU116      0.1161
     96  CD        -9.9030  147.1660   45.5110 C.2   116  GLU116      0.3649
     97  OE1       -9.9050  146.9330   46.7410 O.co2 116  GLU116     -0.2457
     98  OE2       -9.7890  146.2580   44.6530 O.co2 116  GLU116     -0.2457
     99  N        -10.5960  152.7810   47.2250 N.am  117  ARG117     -0.1980
    100  CA       -11.1430  153.6930   48.2110 C.3   117  ARG117      0.1597
    101  C        -11.3230  155.0840   47.6420 C.2   117  ARG117      0.2287
    102  O        -11.6510  156.0150   48.3780 O.2   117  ARG117     -0.2864
    103  CB       -10.2270  153.7910   49.4220 C.3   117  ARG117      0.0334
    104  CG       -10.2470  152.6020   50.3540 C.3   117  ARG117      0.0492
    105  CD        -9.2570  152.8760   51.4650 C.3   117  ARG117      0.2205
    106  NE        -9.3600  151.9680   52.5990 N.pl3 117  ARG117     -0.0865
    107  CZ        -8.6150  152.0840   53.6920 C.cat 117  ARG117      0.5346
    108  NH1       -7.7200  153.0610   53.7850 N.pl3 117  ARG117      0.1354
    109  NH2       -8.7680  151.2360   54.6940 N.pl3 117  ARG117      0.1354
    110  N         -6.3200  159.3040   49.7040 N.3   121  ILE121     -0.1245
    111  CA        -4.9100  159.4840   49.9980 C.3   121  ILE121      0.1561
    112  C         -4.2230  159.2500   48.6540 C.2   121  ILE121      0.2260
    113  O         -4.3080  158.1550   48.0930 O.2   121  ILE121     -0.2867
    114  CB        -4.3720  158.4110   50.9780 C.3   121  ILE121      0.0252
    115  CG1       -5.1000  158.4860   52.3180 C.3   121  ILE121      0.0019
    116  CG2       -2.8800  158.6020   51.1860 C.3   121  ILE121      0.0019
    117  CD1       -4.6920  157.3770   53.2990 C.3   121  ILE121      0.0001
    118  N         -1.6980  140.4530   56.6310 N.3   150  THR150     -0.1203
    119  CA        -3.1190  140.5420   56.3290 C.3   150  THR150      0.1994
    120  C         -3.5050  140.1550   54.9160 C.2   150  THR150      0.2619
    121  O         -4.5480  140.5900   54.4400 O.2   150  THR150     -0.2717
    122  CB        -3.6400  141.9320   56.5450 C.3   150  THR150      0.1784
    123  OG1       -3.0010  142.8110   55.6210 O.3   150  THR150     -0.2211
    124  CG2       -3.3620  142.3780   57.9540 C.3   150  THR150      0.0376
    125  N         -2.6670  139.3890   54.2230 N.am  151  THR151     -0.1938
    126  CA        -3.0350  138.9540   52.8810 C.3   151  THR151      0.2028
    127  C         -3.2390  137.4570   53.0070 C.2   151  THR151      0.2642
    128  O         -3.7670  136.8080   52.1100 O.2   151  THR151     -0.2714
    129  CB        -1.9530  139.2740   51.8070 C.3   151  THR151      0.1808
    130  OG1       -0.6960  138.7020   52.1820 O.3   151  THR151     -0.2208
    131  CG2       -1.8010  140.7710   51.6400 C.3   151  THR151      0.0379
    132  N         -2.8300  136.9250   54.1540 N.am  152  LYS152     -0.1977
    133  CA        -2.9800  135.5080   54.4550 C.3   152  LYS152      0.1596
    134  C         -4.1590  135.3470   55.4100 C.2   152  LYS152      0.2287
    135  O         -4.7040  136.3260   55.9200 O.2   152  LYS152     -0.2864
    136  CB        -1.7180  134.9590   55.1210 C.3   152  LYS152      0.0298
    137  CG        -0.4450  135.1360   54.3140 C.3   152  LYS152      0.0038
    138  CD         0.6910  134.3170   54.9200 C.3   152  LYS152      0.0206
    139  CE         1.9290  134.2950   54.0240 C.3   152  LYS152      0.1093
    140  NZ         2.9160  133.2450   54.4320 N.3   152  LYS152     -0.1314
    141  N         -6.0360  134.7030   58.8030 N.3   154  ILE154     -0.1245
    142  CA        -5.6740  135.0630   60.1670 C.3   154  ILE154      0.1561
    143  C         -6.5120  134.2250   61.1290 C.2   154  ILE154      0.2260
    144  O         -7.7140  134.0990   60.9400 O.2   154  ILE154     -0.2867
    145  CB        -5.9430  136.5550   60.4170 C.3   154  ILE154      0.0252
    146  CG1       -5.0830  137.3960   59.4740 C.3   154  ILE154      0.0019
    147  CG2       -5.6200  136.9140   61.8440 C.3   154  ILE154      0.0019
    148  CD1       -5.4310  138.8520   59.4700 C.3   154  ILE154      0.0001
@<TRIPOS>BOND
     1    73    74    1
     2    73    72    1
     3    74    75    1
     4    98    96   ar
     5    72    69    1
     6    69    68    1
     7    69    70    1
     8    95    96    1
     9    95    94    1
    10    90    91    1
    11    77    76    1
    12    75    76    2
    13    71    70    2
    14    96    97   ar
    15    91    94    1
    16    91    92    1
    17    70    79   am
    18    76    78    1
    19    92    93    2
    20    92    99   am
    21    79    80    1
    22    99   100    1
    23   101   100    1
    24   101   102    2
    25   113   112    2
    26    80    81    1
    27    80    83    1
    28   100   103    1
    29    81    82    2
    30   112   111    1
    31   103   104    1
    32    83    84    1
    33    84    85    1
    34   110   111    1
    35   111   114    1
    36   104   105    1
    37    85    86    1
    38   114   116    1
    39   114   115    1
    40    86    87    2
    41   105   106    1
    42   131   129    1
    43   129   130    1
    44   129   126    1
    45   128   127    2
    46   115   117    1
    47    87    89    1
    48    87    88    1
    49   106   107    2
    50   126   127    1
    51   126   125    1
    52   127   132   am
    53    11    10    2
    54     4     3    2
    55   107   108    1
    56   107   109    1
    57     9    10    1
    58     9     8    1
    59   139   140    1
    60   139   138    1
    61    10    12   am
    62   132   133    1
    63   125   120   am
    64   137   138    1
    65   137   136    1
    66   121   120    2
    67   133   136    1
    68   133   134    1
    69     3     8   am
    70     3     2    1
    71     5     2    1
    72     5     6    1
    73   120   119    1
    74    12    13    1
    75   134   135    2
    76     2     1    1
    77    13    14    1
    78    13    16    1
    79   123   122    1
    80     6     7    1
    81     7     1    1
    82    14    15    2
    83    14    19   am
    84   119   122    1
    85   119   118    1
    86    18    16    1
    87    16    17    1
    88   122   124    1
    89    19    20    1
    90    20    21    1
    91    43    42    1
    92    44    42    1
    93    42    39    1
    94   141   142    1
    95    21    23   am
    96    21    22    2
    97    31    30    1
    98    23    24    1
    99   148   146    1
   100   146   145    1
   101    66    65    1
   102    67    65    1
   103    39    38    1
   104    39    40    1
   105   142   145    1
   106   142   143    1
   107    38    34   am
   108   145   147    1
   109    36    37    1
   110    36    33    1
   111    30    29    1
   112    52    50   ar
   113    51    50   ar
   114    65    62    1
   115    32    33    1
   116    32    25   am
   117    24    27    1
   118    24    25    1
   119    28    27    1
   120    28    29    1
   121   144   143    2
   122    40    41    2
   123    50    49    1
   124    34    33    1
   125    34    35    2
   126    25    26    2
   127    62    61    1
   128    62    63    1
   129    49    46    1
   130    64    63    2
   131    59    58   ar
   132    46    47    1
   133    46    45    1
   134    48    47    2
   135    60    58   ar
   136    58    57    1
   137    56    55    2
   138    55    54    1
   139    57    54    1
   140    54    53    1
