@<TRIPOS>MOLECULE
tmp/3adeA00.pdb
 150 140 0 0 0
SMALL
GASTEIGER

@<TRIPOS>ATOM
      1  N         41.2940   23.9200    0.0690 N.3    10  TYR10      -0.1241
      2  CA        42.3150   23.3470   -0.7770 C.3    10  TYR10       0.1605
      3  C         43.5080   24.2450   -1.0440 C.2    10  TYR10       0.2264
      4  O         43.3920   25.4000   -1.4490 O.2    10  TYR10      -0.2867
      5  CB        41.7020   22.9570   -2.1170 C.3    10  TYR10       0.0534
      6  CG        42.6610   22.2940   -3.0740 C.ar   10  TYR10      -0.0201
      7  CD1       42.8120   20.9110   -3.0880 C.ar   10  TYR10      -0.0009
      8  CD2       43.4260   23.0480   -3.9600 C.ar   10  TYR10      -0.0009
      9  CE1       43.7030   20.2950   -3.9640 C.ar   10  TYR10       0.0417
     10  CE2       44.3190   22.4450   -4.8340 C.ar   10  TYR10       0.0417
     11  CZ        44.4530   21.0730   -4.8310 C.ar   10  TYR10       0.1957
     12  OH        45.3450   20.4780   -5.6870 O.3    10  TYR10      -0.2866
     13  N         37.4540   19.3820    0.3320 N.3    39  SER39      -0.1202
     14  CA        37.2740   20.6880   -0.2670 C.3    39  SER39       0.2020
     15  C         36.0190   20.5870   -1.1190 C.2    39  SER39       0.2619
     16  O         35.5040   19.4880   -1.3500 O.2    39  SER39      -0.2717
     17  CB        38.4890   21.0660   -1.1220 C.3    39  SER39       0.2103
     18  OG        38.8910   19.9950   -1.9540 O.3    39  SER39      -0.2182
     19  N         35.5170   21.7300   -1.5690 N.am   40  GLY40      -0.1956
     20  CA        34.3200   21.7140   -2.3820 C.3    40  GLY40       0.1869
     21  C         33.1360   21.3410   -1.5240 C.2    40  GLY40       0.2309
     22  O         32.0690   20.9930   -2.0330 O.2    40  GLY40      -0.2863
     23  N         35.0640   16.9230   -1.4310 N.3    56  ARG56      -0.1245
     24  CA        35.9190   15.8870   -1.9910 C.3    56  ARG56       0.1563
     25  C         37.3070   15.9220   -1.3760 C.2    56  ARG56       0.2260
     26  O         37.7910   16.9760   -0.9720 O.2    56  ARG56      -0.2867
     27  CB        36.0410   16.0690   -3.5010 C.3    56  ARG56       0.0307
     28  CG        37.0480   15.1460   -4.1340 C.3    56  ARG56       0.0489
     29  CD        37.2190   15.4270   -5.6100 C.3    56  ARG56       0.2205
     30  NE        37.8660   16.7130   -5.8620 N.pl3  56  ARG56      -0.0865
     31  CZ        38.3310   17.0930   -7.0510 C.cat  56  ARG56       0.5346
     32  NH1       38.2200   16.2810   -8.0960 N.pl3  56  ARG56       0.1354
     33  NH2       38.9100   18.2810   -7.1980 N.pl3  56  ARG56       0.1354
     34  N         40.7520   15.6660   -2.4480 N.3    58  ASN58      -0.1240
     35  CA        41.6880   15.6950   -3.5660 C.3    58  ASN58       0.1653
     36  C         43.1080   15.5860   -3.0290 C.2    58  ASN58       0.2266
     37  O         43.7730   16.5930   -2.8130 O.2    58  ASN58      -0.2867
     38  CB        41.5390   17.0110   -4.3260 C.3    58  ASN58       0.1155
     39  CG        42.3550   17.0430   -5.5960 C.2    58  ASN58       0.2627
     40  OD1       43.5210   16.6560   -5.6070 O.2    58  ASN58      -0.2716
     41  ND2       41.7480   17.5130   -6.6750 N.am   58  ASN58      -0.0877
     42  N         41.5800   11.2520   -5.7390 N.3    63  ASN63      -0.1240
     43  CA        40.2990   11.9400   -5.5160 C.3    63  ASN63       0.1653
     44  C         39.2500   10.9810   -4.9560 C.2    63  ASN63       0.2266
     45  O         39.1850    9.8230   -5.3630 O.2    63  ASN63      -0.2867
     46  CB        39.7370   12.5110   -6.8260 C.3    63  ASN63       0.1155
     47  CG        40.3660   13.8320   -7.2170 C.2    63  ASN63       0.2627
     48  OD1       40.6600   14.6720   -6.3650 O.2    63  ASN63      -0.2716
     49  ND2       40.5530   14.0360   -8.5150 N.am   63  ASN63      -0.0877
     50  N         30.6040   16.4950   -4.7070 N.3    90  ASN90      -0.1225
     51  CA        31.7320   17.4180   -4.6970 C.3    90  ASN90       0.1785
     52  C         31.2730   18.7660   -5.2630 C.2    90  ASN90       0.2597
     53  O         30.4670   18.8120   -6.1950 O.2    90  ASN90      -0.2718
     54  CB        32.8850   16.8590   -5.5220 C.3    90  ASN90       0.1169
     55  CG        34.0600   17.8010   -5.5790 C.2    90  ASN90       0.2627
     56  OD1       34.4320   18.4070   -4.5740 O.2    90  ASN90      -0.2716
     57  ND2       34.6590   17.9290   -6.7570 N.am   90  ASN90      -0.0877
     58  N         31.7930   19.8560   -4.6990 N.am   91  ARG91      -0.1979
     59  CA        31.4200   21.2180   -5.1060 C.3    91  ARG91       0.1597
     60  C         29.9190   21.3510   -4.9250 C.2    91  ARG91       0.2287
     61  O         29.1900   21.7430   -5.8330 O.2    91  ARG91      -0.2864
     62  CB        31.8210   21.4970   -6.5550 C.3    91  ARG91       0.0334
     63  CG        33.3320   21.4890   -6.7790 C.3    91  ARG91       0.0492
     64  CD        33.7090   22.2220   -8.0550 C.3    91  ARG91       0.2205
     65  NE        33.4040   23.6460   -7.9480 N.pl3  91  ARG91      -0.0865
     66  CZ        33.4540   24.5080   -8.9590 C.cat  91  ARG91       0.5346
     67  NH1       33.7980   24.0940  -10.1770 N.pl3  91  ARG91       0.1354
     68  NH2       33.1690   25.7880   -8.7490 N.pl3  91  ARG91       0.1354
     69  N         28.9350   26.6410  -18.2670 N.3   159  ARG159     -0.1245
     70  CA        28.9020   27.2900  -16.9690 C.3   159  ARG159      0.1563
     71  C         27.5440   28.0000  -17.0130 C.2   159  ARG159      0.2260
     72  O         27.1260   28.4750  -18.0680 O.2   159  ARG159     -0.2867
     73  CB        30.0360   28.3080  -16.8250 C.3   159  ARG159      0.0307
     74  CG        31.2770   27.7840  -16.1100 C.3   159  ARG159      0.0489
     75  CD        32.2970   27.2070  -17.0720 C.3   159  ARG159      0.2205
     76  NE        33.4330   26.6260  -16.3620 N.pl3 159  ARG159     -0.0865
     77  CZ        34.5320   26.1680  -16.9570 C.cat 159  ARG159      0.5346
     78  NH1       34.6450   26.2270  -18.2780 N.pl3 159  ARG159      0.1354
     79  NH2       35.5180   25.6480  -16.2330 N.pl3 159  ARG159      0.1354
     80  N         30.2830   30.2710  -11.9950 N.3   184  SER184     -0.1217
     81  CA        30.5040   28.9400  -11.4550 C.3   184  SER184      0.1889
     82  C         31.4140   29.0710  -10.2480 C.2   184  SER184      0.2288
     83  O         32.4770   29.6720  -10.3340 O.2   184  SER184     -0.2866
     84  CB        31.1700   28.0310  -12.4790 C.3   184  SER184      0.2089
     85  OG        31.5380   26.8050  -11.8680 O.3   184  SER184     -0.2183
     86  N         33.5260   31.8720  -11.6520 N.3   201  TYR201     -0.1241
     87  CA        34.2170   31.7210  -12.9230 C.3   201  TYR201      0.1605
     88  C         33.2080   31.7190  -14.0620 C.2   201  TYR201      0.2264
     89  O         32.2410   30.9640  -14.0460 O.2   201  TYR201     -0.2867
     90  CB        35.0000   30.4180  -12.9200 C.3   201  TYR201      0.0534
     91  CG        35.8700   30.2190  -14.1270 C.ar  201  TYR201     -0.0201
     92  CD1       36.9110   31.0940  -14.4020 C.ar  201  TYR201     -0.0009
     93  CD2       35.6730   29.1350  -14.9820 C.ar  201  TYR201     -0.0009
     94  CE1       37.7420   30.8990  -15.4990 C.ar  201  TYR201      0.0417
     95  CE2       36.4950   28.9280  -16.0800 C.ar  201  TYR201      0.0417
     96  CZ        37.5320   29.8150  -16.3330 C.ar  201  TYR201      0.1957
     97  OH        38.3710   29.6190  -17.4110 O.3   201  TYR201     -0.2866
     98  N         38.4060   34.4890  -13.3930 N.3   206  GLN206     -0.1245
     99  CA        37.8120   34.5510  -12.0640 C.3   206  GLN206      0.1566
    100  C         37.1970   35.9470  -11.9620 C.2   206  GLN206      0.2260
    101  O         37.7740   36.9230  -12.4290 O.2   206  GLN206     -0.2867
    102  CB        38.8790   34.3510  -10.9840 C.3   206  GLN206      0.0367
    103  CG        39.4430   32.9310  -10.8980 C.3   206  GLN206      0.0905
    104  CD        40.2060   32.5120  -12.1450 C.2   206  GLN206      0.2608
    105  OE1       40.9990   33.2810  -12.6800 O.2   206  GLN206     -0.2717
    106  NE2       39.9800   31.2800  -12.6030 N.am  206  GLN206     -0.0878
    107  N         37.3850   32.8810   -7.3900 N.3   231  SER231     -0.1202
    108  CA        36.4300   31.8190   -7.6550 C.3   231  SER231      0.2020
    109  C         36.5710   30.7530   -6.5610 C.2   231  SER231      0.2618
    110  O         37.5940   30.6970   -5.8810 O.2   231  SER231     -0.2717
    111  CB        36.6930   31.2200   -9.0340 C.3   231  SER231      0.2103
    112  OG        35.6510   30.3330   -9.3900 O.3   231  SER231     -0.2182
    113  N         35.5480   29.9150   -6.3970 N.am  232  ALA232     -0.1979
    114  CA        35.5450   28.8710   -5.3680 C.3   232  ALA232      0.1597
    115  C         35.8290   29.5000   -3.9990 C.2   232  ALA232      0.2287
    116  O         36.6440   28.9910   -3.2270 O.2   232  ALA232     -0.2864
    117  CB        36.5960   27.8070   -5.6880 C.3   232  ALA232      0.0319
    118  N         40.3630   31.2740   -5.4880 N.3   248  TYR248     -0.1241
    119  CA        41.4300   31.1860   -6.4780 C.3   248  TYR248      0.1605
    120  C         41.2080   32.2890   -7.5090 C.2   248  TYR248      0.2264
    121  O         40.0850   32.4880   -7.9810 O.2   248  TYR248     -0.2867
    122  CB        41.3950   29.8080   -7.1400 C.3   248  TYR248      0.0534
    123  CG        42.4050   29.5940   -8.2420 C.ar  248  TYR248     -0.0201
    124  CD1       43.7770   29.5780   -7.9810 C.ar  248  TYR248     -0.0009
    125  CD2       41.9850   29.3830   -9.5510 C.ar  248  TYR248     -0.0009
    126  CE1       44.7020   29.3550   -9.0010 C.ar  248  TYR248      0.0417
    127  CE2       42.8990   29.1600  -10.5750 C.ar  248  TYR248      0.0417
    128  CZ        44.2500   29.1470  -10.2960 C.ar  248  TYR248      0.1957
    129  OH        45.1240   28.9240  -11.3280 O.3   248  TYR248     -0.2866
    130  N         46.1960   30.9520   -4.6360 N.3   253  PHE253     -0.1241
    131  CA        45.0790   30.7120   -3.7470 C.3   253  PHE253      0.1605
    132  C         45.1330   31.8260   -2.7290 C.2   253  PHE253      0.2264
    133  O         46.0720   31.9160   -1.9430 O.2   253  PHE253     -0.2867
    134  CB        45.2030   29.3430   -3.0880 C.3   253  PHE253      0.0534
    135  CG        45.0900   28.2090   -4.0610 C.ar  253  PHE253     -0.0203
    136  CD1       46.1170   27.9440   -4.9620 C.ar  253  PHE253     -0.0042
    137  CD2       43.9320   27.4440   -4.1250 C.ar  253  PHE253     -0.0042
    138  CE1       45.9930   26.9410   -5.9150 C.ar  253  PHE253     -0.0003
    139  CE2       43.8000   26.4360   -5.0800 C.ar  253  PHE253     -0.0003
    140  CZ        44.8330   26.1880   -5.9740 C.ar  253  PHE253     -0.0000
    141  N         41.2390   27.4350   -1.2390 N.3   278  SER278     -0.1202
    142  CA        39.9820   27.6140   -1.9490 C.3   278  SER278      0.2020
    143  C         38.9970   26.5260   -1.5310 C.2   278  SER278      0.2619
    144  O         39.3390   25.6480   -0.7440 O.2   278  SER278     -0.2717
    145  CB        40.2000   27.5980   -3.4720 C.3   278  SER278      0.2103
    146  OG        40.6010   26.3270   -3.9480 O.3   278  SER278     -0.2182
    147  N         37.7710   26.6070   -2.0410 N.am  279  GLY279     -0.1956
    148  CA        36.7480   25.6260   -1.7160 C.3   279  GLY279      0.1869
    149  C         36.5960   25.2790   -0.2430 C.2   279  GLY279      0.2309
    150  O         36.7110   24.1120    0.1400 O.2   279  GLY279     -0.2863
@<TRIPOS>BOND
     1    78    77    1
     2    69    70    1
     3    72    71    2
     4    97    96    1
     5    75    76    1
     6    75    74    1
     7    71    70    1
     8    70    73    1
     9    77    76    2
    10    77    79    1
    11    73    74    1
    12    96    95   ar
    13    96    94   ar
    14    95    93   ar
    15    94    92   ar
    16    93    91   ar
    17    92    91   ar
    18    91    90    1
    19    88    89    2
    20    88    87    1
    21    98    99    1
    22    87    90    1
    23    87    86    1
    24   105   104    2
    25   106   104   am
    26    84    85    1
    27    84    81    1
    28   101   100    2
    29   104   103    1
    30    99   100    1
    31    99   102    1
    32    80    81    1
    33    81    82    1
    34   129   128    1
    35   102   103    1
    36   127   128   ar
    37   127   125   ar
    38    83    82    2
    39   128   126   ar
    40    67    66    1
    41   125   123   ar
    42   112   111    1
    43   111   108    1
    44   126   124   ar
    45    66    68    1
    46    66    65    2
    47    49    47   am
    48   123   124   ar
    49   123   122    1
    50    32    31    1
    51    64    65    1
    52    64    63    1
    53   121   120    2
    54   108   107    1
    55   108   109    1
    56   120   119    1
    57    47    46    1
    58    47    48    2
    59    33    31    1
    60   122   119    1
    61    31    30    2
    62    46    43    1
    63    63    62    1
    64    57    55   am
    65    41    39   am
    66   109   113   am
    67   109   110    2
    68    62    59    1
    69   119   118    1
    70   113   114    1
    71    53    52    2
    72   140   138   ar
    73   140   139   ar
    74   138   136   ar
    75    30    29    1
    76    61    60    2
    77    42    43    1
    78   117   114    1
    79    12    11    1
    80    29    28    1
    81    40    39    2
    82    39    38    1
    83    55    54    1
    84    55    56    2
    85    54    51    1
    86    43    44    1
    87   114   115    1
    88    45    44    2
    89    52    58   am
    90    52    51    1
    91    59    60    1
    92    59    58    1
    93   139   137   ar
    94   136   135   ar
    95    10    11   ar
    96    10     8   ar
    97    11     9   ar
    98    50    51    1
    99   130   131    1
   100    38    35    1
   101    28    27    1
   102   137   135   ar
   103   135   134    1
   104   115   116    2
   105     9     7   ar
   106     8     6   ar
   107   146   145    1
   108   131   134    1
   109   131   132    1
   110    35    36    1
   111    35    34    1
   112    27    24    1
   113   145   142    1
   114     7     6   ar
   115     6     5    1
   116    36    37    2
   117   132   133    2
   118    20    19    1
   119    20    21    1
   120     5     2    1
   121   147   148    1
   122   147   143   am
   123    22    21    2
   124    24    23    1
   125    24    25    1
   126    18    17    1
   127   142   143    1
   128   142   141    1
   129   148   149    1
   130    19    15   am
   131   143   144    2
   132     4     3    2
   133    25    26    2
   134    16    15    2
   135    17    14    1
   136    15    14    1
   137     3     2    1
   138     2     1    1
   139    14    13    1
   140   149   150    2
