@<TRIPOS>MOLECULE
tmp/3adsA01.pdb
 195 185 0 0 0
SMALL
GASTEIGER

@<TRIPOS>ATOM
      1  N         26.7180   73.2100    8.4450 N.3    64  ALA64      -0.1245
      2  CA        26.8430   72.2630    9.5440 C.3    64  ALA64       0.1562
      3  C         25.9610   72.6760   10.7170 C.2    64  ALA64       0.2260
      4  O         25.2190   71.8630   11.2590 O.2    64  ALA64      -0.2867
      5  CB        28.2880   72.1640    9.9920 C.3    64  ALA64       0.0290
      6  N         22.0760   72.7110    9.8530 N.3    67  ILE67      -0.1231
      7  CA        21.5030   71.3720    9.8540 C.3    67  ILE67       0.1692
      8  C         21.3280   70.9570   11.3070 C.2    67  ILE67       0.2592
      9  O         20.3370   70.3410   11.6830 O.2    67  ILE67      -0.2718
     10  CB        22.4330   70.3790    9.1310 C.3    67  ILE67       0.0266
     11  CG1       22.5860   70.8050    7.6680 C.3    67  ILE67       0.0019
     12  CG2       21.8840   68.9650    9.2370 C.3    67  ILE67       0.0020
     13  CD1       23.5290   69.9440    6.8610 C.3    67  ILE67       0.0001
     14  N         22.3030   71.3200   12.1240 N.am   68  PHE68      -0.1976
     15  CA        22.2670   71.0140   13.5430 C.3    68  PHE68       0.1639
     16  C         20.9970   71.5910   14.1800 C.2    68  PHE68       0.2290
     17  O         20.2430   70.8850   14.8540 O.2    68  PHE68      -0.2864
     18  CB        23.5020   71.6140   14.2130 C.3    68  PHE68       0.0560
     19  CG        23.4980   71.5080   15.7110 C.ar   68  PHE68      -0.0200
     20  CD1       23.9180   70.3400   16.3410 C.ar   68  PHE68      -0.0042
     21  CD2       23.0860   72.5860   16.4930 C.ar   68  PHE68      -0.0042
     22  CE1       23.9360   70.2430   17.7240 C.ar   68  PHE68      -0.0003
     23  CE2       23.0970   72.5010   17.8860 C.ar   68  PHE68      -0.0003
     24  CZ        23.5260   71.3220   18.5010 C.ar   68  PHE68      -0.0000
     25  N         17.7430   69.8440   12.9700 N.3    71  CYS71      -0.1221
     26  CA        17.6200   68.5110   13.5290 C.3    71  CYS71       0.1808
     27  C         17.2810   68.6230   15.0110 C.2    71  CYS71       0.2601
     28  O         16.5810   67.7790   15.5820 O.2    71  CYS71      -0.2717
     29  CB        18.9410   67.7670   13.3470 C.3    71  CYS71       0.0970
     30  SG        18.9450   66.1080   14.0140 S.3    71  CYS71      -0.0800
     31  N         17.7810   69.6850   15.6260 N.am   72  GLN72      -0.1979
     32  CA        17.5570   69.9310   17.0370 C.3    72  GLN72       0.1601
     33  C         16.0980   70.2260   17.3310 C.2    72  GLN72       0.2287
     34  O         15.5550   69.7280   18.3160 O.2    72  GLN72      -0.2864
     35  CB        18.4370   71.0920   17.5090 C.3    72  GLN72       0.0394
     36  CG        18.0780   71.6150   18.8760 C.3    72  GLN72       0.0908
     37  CD        19.2730   72.1700   19.6170 C.2    72  GLN72       0.2608
     38  OE1       19.8990   73.1360   19.1840 O.2    72  GLN72      -0.2717
     39  NE2       19.5990   71.5520   20.7430 N.am   72  GLN72      -0.0878
     40  N         13.4500   69.4840   15.3160 N.3    74  ARG74      -0.1231
     41  CA        12.6440   68.3350   14.9460 C.3    74  ARG74       0.1694
     42  C         12.6000   67.3480   16.1200 C.2    74  ARG74       0.2592
     43  O         11.5810   66.7080   16.3520 O.2    74  ARG74      -0.2718
     44  CB        13.2210   67.6850   13.6800 C.3    74  ARG74       0.0321
     45  CG        12.6550   66.3220   13.3300 C.3    74  ARG74       0.0489
     46  CD        11.1200   66.2790   13.3050 C.3    74  ARG74       0.2205
     47  NE        10.6630   64.8900   13.3030 N.pl3  74  ARG74      -0.0865
     48  CZ         9.4810   64.4730   13.7410 C.cat  74  ARG74       0.5346
     49  NH1        8.5930   65.3360   14.2230 N.pl3  74  ARG74       0.1354
     50  NH2        9.2040   63.1750   13.7440 N.pl3  74  ARG74       0.1354
     51  N         13.6880   67.2480   16.8810 N.am   75  SER75      -0.1952
     52  CA        13.7120   66.3380   18.0310 C.3    75  SER75       0.1924
     53  C         12.7720   66.8320   19.1200 C.2    75  SER75       0.2314
     54  O         12.0950   66.0400   19.7770 O.2    75  SER75      -0.2863
     55  CB        15.1170   66.2180   18.6140 C.3    75  SER75       0.2116
     56  OG        15.9850   65.5580   17.7190 O.3    75  SER75      -0.2180
     57  N         14.6100   59.2830   23.4910 N.3   109  HIS109     -0.1241
     58  CA        15.5790   59.1310   22.4140 C.3   109  HIS109      0.1621
     59  C         15.6200   57.7270   21.8340 C.2   109  HIS109      0.2264
     60  O         15.8130   57.5640   20.6300 O.2   109  HIS109     -0.2867
     61  CB        16.9730   59.5850   22.8560 C.3   109  HIS109      0.0745
     62  CG        17.1180   61.0750   22.9050 C.ar  109  HIS109      0.0817
     63  ND1       16.8470   61.8150   24.0380 N.ar  109  HIS109     -0.2268
     64  CD2       17.4440   61.9680   21.9410 C.ar  109  HIS109      0.1154
     65  CE1       17.0020   63.0990   23.7680 C.ar  109  HIS109      0.1986
     66  NE2       17.3650   63.2190   22.5040 N.ar  109  HIS109     -0.2212
     67  N         12.9750   57.8860   19.4120 N.3   112  ILE112     -0.1231
     68  CA        13.2880   58.7530   18.2890 C.3   112  ILE112      0.1692
     69  C         14.1360   58.0190   17.2590 C.2   112  ILE112      0.2592
     70  O         13.8530   58.0810   16.0690 O.2   112  ILE112     -0.2718
     71  CB        14.0020   60.0620   18.7710 C.3   112  ILE112      0.0266
     72  CG1       12.9560   61.0270   19.3460 C.3   112  ILE112      0.0019
     73  CG2       14.7670   60.7250   17.6190 C.3   112  ILE112      0.0020
     74  CD1       13.5180   62.3870   19.8420 C.3   112  ILE112      0.0001
     75  N         15.1740   57.3250   17.7090 N.am  113  TYR113     -0.1976
     76  CA        16.0340   56.5670   16.7950 C.3   113  TYR113      0.1639
     77  C         15.2730   55.3930   16.1650 C.2   113  TYR113      0.2290
     78  O         15.5050   55.0420   15.0120 O.2   113  TYR113     -0.2864
     79  CB        17.2700   56.0650   17.5470 C.3   113  TYR113      0.0560
     80  CG        18.1220   57.1950   18.0710 C.ar  113  TYR113     -0.0198
     81  CD1       18.6490   57.1590   19.3600 C.ar  113  TYR113     -0.0009
     82  CD2       18.3610   58.3340   17.2920 C.ar  113  TYR113     -0.0009
     83  CE1       19.3830   58.2260   19.8630 C.ar  113  TYR113      0.0417
     84  CE2       19.0950   59.4040   17.7870 C.ar  113  TYR113      0.0417
     85  CZ        19.6000   59.3430   19.0700 C.ar  113  TYR113      0.1957
     86  OH        20.3310   60.3970   19.5680 O.3   113  TYR113     -0.2866
     87  N         13.0770   57.0580   13.5450 N.3   116  LEU116     -0.1245
     88  CA        13.8990   57.6940   12.5330 C.3   116  LEU116      0.1561
     89  C         14.2760   56.6640   11.4660 C.2   116  LEU116      0.2260
     90  O         14.3890   57.0000   10.2840 O.2   116  LEU116     -0.2867
     91  CB        15.1730   58.2670   13.1560 C.3   116  LEU116      0.0270
     92  CG        16.1060   58.9690   12.1700 C.3   116  LEU116      0.0019
     93  CD1       15.4140   60.2070   11.6150 C.3   116  LEU116      0.0001
     94  CD2       17.4060   59.3350   12.8600 C.3   116  LEU116      0.0001
     95  N         25.7570   64.2630    4.6970 N.3   139  LEU139     -0.1245
     96  CA        25.8380   64.3570    6.1500 C.3   139  LEU139      0.1561
     97  C         27.1620   63.8450    6.6920 C.2   139  LEU139      0.2260
     98  O         27.6650   64.3500    7.6950 O.2   139  LEU139     -0.2867
     99  CB        24.6940   63.5710    6.7860 C.3   139  LEU139      0.0270
    100  CG        23.3320   64.2400    6.6200 C.3   139  LEU139      0.0019
    101  CD1       22.2100   63.2560    6.9160 C.3   139  LEU139      0.0001
    102  CD2       23.2720   65.4570    7.5470 C.3   139  LEU139      0.0001
    103  N         30.2410   66.4940    6.3930 N.3   142  LEU142     -0.1245
    104  CA        30.2260   67.7390    7.1460 C.3   142  LEU142      0.1561
    105  C         31.4360   67.9190    8.0540 C.2   142  LEU142      0.2260
    106  O         32.1270   66.9550    8.3750 O.2   142  LEU142     -0.2867
    107  CB        28.9390   67.8240    7.9630 C.3   142  LEU142      0.0270
    108  CG        27.7010   67.8550    7.0680 C.3   142  LEU142      0.0019
    109  CD1       26.4590   67.9690    7.9110 C.3   142  LEU142      0.0001
    110  CD2       27.7970   69.0300    6.1020 C.3   142  LEU142      0.0001
    111  N         30.4150   67.4790   13.1610 N.3   146  PHE146     -0.1241
    112  CA        29.0760   67.1950   12.6560 C.3   146  PHE146      0.1605
    113  C         28.8840   65.9970   11.7180 C.2   146  PHE146      0.2264
    114  O         27.7950   65.4220   11.6690 O.2   146  PHE146     -0.2867
    115  CB        28.5170   68.4470   11.9830 C.3   146  PHE146      0.0534
    116  CG        28.6230   69.6880   12.8240 C.ar  146  PHE146     -0.0203
    117  CD1       29.8200   70.3890   12.9050 C.ar  146  PHE146     -0.0042
    118  CD2       27.5230   70.1590   13.5360 C.ar  146  PHE146     -0.0042
    119  CE1       29.9210   71.5410   13.6780 C.ar  146  PHE146     -0.0003
    120  CE2       27.6150   71.3120   14.3150 C.ar  146  PHE146     -0.0003
    121  CZ        28.8170   72.0020   14.3840 C.ar  146  PHE146     -0.0000
    122  N         27.7430   62.3870   13.4260 N.3   149  PHE149     -0.1227
    123  CA        26.5140   62.2090   14.1810 C.3   149  PHE149      0.1736
    124  C         25.4810   61.2760   13.5870 C.2   149  PHE149      0.2595
    125  O         24.8460   60.5140   14.3160 O.2   149  PHE149     -0.2718
    126  CB        25.8460   63.5630   14.4420 C.3   149  PHE149      0.0547
    127  CG        26.3810   64.2780   15.6460 C.ar  149  PHE149     -0.0202
    128  CD1       27.6140   64.9220   15.6030 C.ar  149  PHE149     -0.0042
    129  CD2       25.6550   64.2960   16.8340 C.ar  149  PHE149     -0.0042
    130  CE1       28.1190   65.5790   16.7290 C.ar  149  PHE149     -0.0003
    131  CE2       26.1500   64.9500   17.9670 C.ar  149  PHE149     -0.0003
    132  CZ        27.3840   65.5930   17.9130 C.ar  149  PHE149     -0.0000
    133  N         25.3090   61.3260   12.2730 N.am  150  MET150     -0.1979
    134  CA        24.2960   60.5050   11.6320 C.3   150  MET150      0.1605
    135  C         24.6420   59.0660   11.2510 C.2   150  MET150      0.2287
    136  O         23.7740   58.2020   11.3130 O.2   150  MET150     -0.2864
    137  CB        23.7420   61.2480   10.4150 C.3   150  MET150      0.0413
    138  CG        23.0310   62.5390   10.7790 C.3   150  MET150      0.0598
    139  SD        21.7510   62.2910   12.0370 S.3   150  MET150     -0.1393
    140  CE        20.7020   61.0960   11.2000 C.3   150  MET150      0.0692
    141  N         23.3240   56.2220   13.2570 N.3   153  LYS153     -0.1245
    142  CA        21.8700   56.0780   13.1570 C.3   153  LYS153      0.1561
    143  C         21.5110   55.3070   11.8950 C.2   153  LYS153      0.2260
    144  O         20.5930   54.4900   11.9070 O.2   153  LYS153     -0.2867
    145  CB        21.1650   57.4400   13.1460 C.3   153  LYS153      0.0271
    146  CG        21.0460   58.1100   14.5130 C.3   153  LYS153      0.0035
    147  CD        22.3390   58.7920   14.9140 C.3   153  LYS153      0.0206
    148  CE        22.2150   59.4690   16.2640 C.3   153  LYS153      0.1093
    149  NZ        23.4960   60.1000   16.6910 N.3   153  LYS153     -0.1314
    150  N         25.8370   59.0430   21.2590 N.3   235  HIS235     -0.1241
    151  CA        25.3270   60.3490   20.8520 C.3   235  HIS235      0.1621
    152  C         25.6030   61.4030   21.9150 C.2   235  HIS235      0.2264
    153  O         25.9590   62.5310   21.5990 O.2   235  HIS235     -0.2867
    154  CB        23.8170   60.2790   20.5990 C.3   235  HIS235      0.0745
    155  CG        23.2180   61.5780   20.1620 C.ar  235  HIS235      0.0817
    156  ND1       23.2910   62.0310   18.8620 N.ar  235  HIS235     -0.2268
    157  CD2       22.5540   62.5330   20.8560 C.ar  235  HIS235      0.1154
    158  CE1       22.6950   63.2060   18.7750 C.ar  235  HIS235      0.1986
    159  NE2       22.2400   63.5340   19.9710 N.ar  235  HIS235     -0.2212
    160  N         27.6450   64.8810   21.7510 N.3   239  LEU239     -0.1245
    161  CA        26.9970   66.1340   22.1020 C.3   239  LEU239      0.1561
    162  C         27.9230   66.9490   23.0190 C.2   239  LEU239      0.2260
    163  O         27.9660   68.1780   22.9470 O.2   239  LEU239     -0.2867
    164  CB        25.6660   65.8340   22.7900 C.3   239  LEU239      0.0270
    165  CG        24.4200   66.5520   22.2700 C.3   239  LEU239      0.0019
    166  CD1       24.4190   66.6190   20.7510 C.3   239  LEU239      0.0001
    167  CD2       23.1920   65.8070   22.7680 C.3   239  LEU239      0.0001
    168  N         21.4100   74.7760   22.2900 N.3   251  LEU251     -0.1245
    169  CA        20.8760   73.4400   22.5290 C.3   251  LEU251      0.1561
    170  C         19.5830   73.6730   23.2930 C.2   251  LEU251      0.2260
    171  O         19.6070   74.1610   24.4180 O.2   251  LEU251     -0.2867
    172  CB        21.8530   72.6020   23.3700 C.3   251  LEU251      0.0270
    173  CG        21.5550   71.1500   23.8020 C.3   251  LEU251      0.0019
    174  CD1       20.3540   71.1140   24.7170 C.3   251  LEU251      0.0001
    175  CD2       21.3250   70.2590   22.5930 C.3   251  LEU251      0.0001
    176  N         15.6990   69.3960   25.4950 N.3   255  LEU255     -0.1245
    177  CA        16.6950   68.3710   25.2210 C.3   255  LEU255      0.1561
    178  C         17.7760   68.3720   26.2880 C.2   255  LEU255      0.2260
    179  O         18.2810   67.3220   26.6890 O.2   255  LEU255     -0.2867
    180  CB        17.3180   68.6200   23.8430 C.3   255  LEU255      0.0270
    181  CG        16.7310   67.9440   22.5920 C.3   255  LEU255      0.0019
    182  CD1       15.2390   67.6620   22.7430 C.3   255  LEU255      0.0001
    183  CD2       17.0070   68.8310   21.3780 C.3   255  LEU255      0.0001
    184  N         19.0050   65.1420   28.7870 N.3   259  TYR259     -0.1241
    185  CA        20.3790   64.6740   28.9380 C.3   259  TYR259      0.1605
    186  C         21.0200   64.8850   30.3070 C.2   259  TYR259      0.2264
    187  O         21.9820   64.2000   30.6570 O.2   259  TYR259     -0.2867
    188  CB        21.2510   65.3050   27.8530 C.3   259  TYR259      0.0534
    189  CG        20.9340   64.7730   26.4740 C.ar  259  TYR259     -0.0201
    190  CD1       21.0460   63.4110   26.1980 C.ar  259  TYR259     -0.0009
    191  CD2       20.5060   65.6200   25.4510 C.ar  259  TYR259     -0.0009
    192  CE1       20.7400   62.9020   24.9430 C.ar  259  TYR259      0.0417
    193  CE2       20.1990   65.1180   24.1880 C.ar  259  TYR259      0.0417
    194  CZ        20.3190   63.7560   23.9440 C.ar  259  TYR259      0.1957
    195  OH        20.0220   63.2370   22.7070 O.3   259  TYR259     -0.2866
@<TRIPOS>BOND
     1    95    96    1
     2   110   108    1
     3    96    97    1
     4    96    99    1
     5   103   104    1
     6   100    99    1
     7   100   101    1
     8   100   102    1
     9    97    98    2
    10    13    11    1
    11   108   109    1
    12   108   107    1
    13   104   107    1
    14   104   105    1
    15    11    10    1
    16   105   106    2
    17     1     2    1
    18    10    12    1
    19    10     7    1
    20     2     5    1
    21     2     3    1
    22     6     7    1
    23     7     8    1
    24    90    89    2
    25   137   138    1
    26   137   134    1
    27     3     4    2
    28   138   139    1
    29   140   139    1
    30   135   136    2
    31   135   134    1
    32     8     9    2
    33     8    14   am
    34    89    88    1
    35    93    92    1
    36   134   133    1
    37   114   113    2
    38   113   112    1
    39   143   144    2
    40   143   142    1
    41   115   112    1
    42   115   116    1
    43    14    15    1
    44    92    94    1
    45    92    91    1
    46   133   124   am
    47    88    91    1
    48    88    87    1
    49   112   111    1
    50   116   117   ar
    51   116   118   ar
    52   117   119   ar
    53    25    26    1
    54   145   142    1
    55   145   146    1
    56   142   141    1
    57    47    46    1
    58    47    48    2
    59    46    45    1
    60    45    44    1
    61    29    26    1
    62    29    30    1
    63   122   123    1
    64    26    27    1
    65   118   120   ar
    66    15    16    1
    67    15    18    1
    68   124   123    1
    69   124   125    2
    70   119   121   ar
    71    44    41    1
    72    48    50    1
    73    48    49    1
    74    16    17    2
    75   123   126    1
    76    18    19    1
    77   120   121   ar
    78   126   127    1
    79   146   147    1
    80   147   148    1
    81    41    40    1
    82    41    42    1
    83    27    28    2
    84    27    31   am
    85    78    77    2
    86   128   127   ar
    87   128   130   ar
    88    31    32    1
    89   127   129   ar
    90    19    20   ar
    91    19    21   ar
    92    70    69    2
    93    42    43    2
    94    42    51   am
    95    77    76    1
    96   148   149    1
    97    20    22   ar
    98    21    23   ar
    99   130   132   ar
   100    76    79    1
   101    76    75    1
   102   129   131   ar
   103    51    52    1
   104    32    33    1
   105    32    35    1
   106    69    75   am
   107    69    68    1
   108    82    84   ar
   109    82    80   ar
   110    33    34    2
   111    35    36    1
   112    79    80    1
   113    73    71    1
   114    56    55    1
   115    22    24   ar
   116    84    85   ar
   117    23    24   ar
   118   132   131   ar
   119    52    55    1
   120    52    53    1
   121    80    81   ar
   122    68    71    1
   123    68    67    1
   124    71    72    1
   125   158   156   ar
   126   158   159   ar
   127   156   155   ar
   128    36    37    1
   129    85    86    1
   130    85    83   ar
   131    53    54    2
   132    38    37    2
   133    72    74    1
   134    81    83   ar
   135    37    39   am
   136   159   157   ar
   137   155   154    1
   138   155   157   ar
   139   154   151    1
   140    60    59    2
   141   166   165    1
   142   151   150    1
   143   151   152    1
   144   183   181    1
   145   153   152    2
   146   160   161    1
   147    59    58    1
   148    64    66   ar
   149    64    62   ar
   150   161   164    1
   151   161   162    1
   152   165   167    1
   153   165   164    1
   154   168   169    1
   155    58    61    1
   156    58    57    1
   157    66    65   ar
   158   169   170    1
   159   169   172    1
   160   181   182    1
   161   181   180    1
   162   175   173    1
   163   195   194    1
   164    61    62    1
   165    62    63   ar
   166   163   162    2
   167   170   171    2
   168   172   173    1
   169    65    63   ar
   170   173   174    1
   171   180   177    1
   172   194   193   ar
   173   194   192   ar
   174   193   191   ar
   175   192   190   ar
   176   177   176    1
   177   177   178    1
   178   191   189   ar
   179   190   189   ar
   180   178   179    2
   181   189   188    1
   182   188   185    1
   183   184   185    1
   184   185   186    1
   185   186   187    2
