@<TRIPOS>MOLECULE
tmp/3adtA01.pdb
 129 123 0 0 0
SMALL
GASTEIGER

@<TRIPOS>ATOM
      1  N         -0.9320   55.8720   17.8460 N.3    20  TYR20      -0.1241
      2  CA         0.3050   56.0280   17.0890 C.3    20  TYR20       0.1605
      3  C         -0.0030   56.7890   15.8010 C.2    20  TYR20       0.2264
      4  O          0.6470   57.7850   15.4960 O.2    20  TYR20      -0.2867
      5  CB         0.8680   54.6350   16.7740 C.3    20  TYR20       0.0534
      6  CG         2.0920   54.5670   15.8800 C.ar   20  TYR20      -0.0201
      7  CD1        3.3740   54.5140   16.4190 C.ar   20  TYR20      -0.0009
      8  CD2        1.9580   54.4790   14.4910 C.ar   20  TYR20      -0.0009
      9  CE1        4.5040   54.3590   15.5990 C.ar   20  TYR20       0.0417
     10  CE2        3.0740   54.3310   13.6600 C.ar   20  TYR20       0.0417
     11  CZ         4.3440   54.2670   14.2210 C.ar   20  TYR20       0.1957
     12  OH         5.4380   54.1020   13.4000 O.3    20  TYR20      -0.2866
     13  N          1.7430   60.5920   15.3670 N.3    24  PHE24      -0.1228
     14  CA         2.8880   60.7680   14.4750 C.3    24  PHE24       0.1721
     15  C          2.4420   60.9970   13.0320 C.2    24  PHE24       0.2437
     16  O          1.9060   60.0960   12.3890 O.2    24  PHE24      -0.2733
     17  CB         3.7930   59.5300   14.5430 C.3    24  PHE24       0.0547
     18  CG         4.2050   59.1580   15.9360 C.ar   24  PHE24      -0.0202
     19  CD1        5.0460   59.9950   16.6750 C.ar   24  PHE24      -0.0042
     20  CD2        3.6960   58.0100   16.5400 C.ar   24  PHE24      -0.0042
     21  CE1        5.3720   59.7040   18.0050 C.ar   24  PHE24      -0.0003
     22  CE2        4.0100   57.7060   17.8620 C.ar   24  PHE24      -0.0003
     23  CZ         4.8510   58.5590   18.6010 C.ar   24  PHE24      -0.0000
     24  N          2.6770   62.2100   12.5040 N.am   25  PRO25      -0.2718
     25  CA         2.3210   62.6270   11.1420 C.3    25  PRO25       0.1535
     26  C          2.9560   61.7980   10.0390 C.2    25  PRO25       0.2598
     27  O          2.3580   61.6300    8.9690 O.2    25  PRO25      -0.2715
     28  CB         2.7990   64.0710   11.0830 C.3    25  PRO25       0.0310
     29  CG         2.7380   64.5150   12.4960 C.3    25  PRO25       0.0237
     30  CD         3.2890   63.3300   13.2360 C.3    25  PRO25       0.0939
     31  N          4.1630   61.2830   10.2790 N.am   26  LEU26      -0.1964
     32  CA         4.8330   60.5040    9.2530 C.3    26  LEU26       0.1728
     33  C          5.0800   59.0570    9.6300 C.2    26  LEU26       0.2617
     34  O          6.1410   58.7050   10.1330 O.2    26  LEU26      -0.2715
     35  CB         6.1460   61.1700    8.8720 C.3    26  LEU26       0.0311
     36  CG         6.7810   60.6500    7.5820 C.3    26  LEU26       0.0022
     37  CD1        5.7870   60.7320    6.4240 C.3    26  LEU26       0.0001
     38  CD2        8.0050   61.4770    7.2820 C.3    26  LEU26       0.0001
     39  N          4.0900   58.2140    9.3700 N.am   27  THR27      -0.1937
     40  CA         4.1810   56.7940    9.6690 C.3    27  THR27       0.2028
     41  C          5.2150   56.1750    8.7560 C.2    27  THR27       0.2642
     42  O          5.6510   56.8060    7.8040 O.2    27  THR27      -0.2714
     43  CB         2.8540   56.0820    9.3900 C.3    27  THR27       0.1808
     44  OG1        2.5380   56.1980    7.9980 O.3    27  THR27      -0.2208
     45  CG2        1.7500   56.6810   10.2100 C.3    27  THR27       0.0379
     46  N          5.5930   54.9330    9.0380 N.am   28  LYS28      -0.1977
     47  CA         6.5570   54.2270    8.2060 C.3    28  LYS28       0.1596
     48  C          5.9330   53.8870    6.8440 C.2    28  LYS28       0.2287
     49  O          6.6170   53.8700    5.8190 O.2    28  LYS28      -0.2864
     50  CB         7.0080   52.9430    8.8910 C.3    28  LYS28       0.0298
     51  CG         8.0490   52.1950    8.1240 C.3    28  LYS28       0.0038
     52  CD         8.3390   50.8790    8.7830 C.3    28  LYS28       0.0206
     53  CE         9.5640   50.2570    8.1530 C.3    28  LYS28       0.1093
     54  NZ        10.0360   49.1120    8.9410 N.3    28  LYS28      -0.1314
     55  N         13.9520   69.4180   15.4750 N.3    71  ARG71      -0.1245
     56  CA        13.0390   68.4000   14.9780 C.3    71  ARG71       0.1563
     57  C         12.9330   67.4090   16.1340 C.2    71  ARG71       0.2260
     58  O         11.8650   66.8870   16.4600 O.2    71  ARG71      -0.2867
     59  CB        13.6310   67.6990   13.7540 C.3    71  ARG71       0.0307
     60  CG        12.5960   67.0450   12.8370 C.3    71  ARG71       0.0489
     61  CD        11.7920   65.9350   13.5210 C.3    71  ARG71       0.2205
     62  NE        10.3480   66.1600   13.4240 N.pl3  71  ARG71      -0.0865
     63  CZ         9.4180   65.3520   13.9310 C.cat  71  ARG71       0.5346
     64  NH1        9.7660   64.2480   14.5770 N.pl3  71  ARG71       0.1354
     65  NH2        8.1340   65.6510   13.7980 N.pl3  71  ARG71       0.1354
     66  N          5.6750   64.7380   20.2430 N.3    78  GLU78      -0.1245
     67  CA         4.7830   63.7300   19.6840 C.3    78  GLU78       0.1567
     68  C          4.8110   62.4590   20.5090 C.2    78  GLU78       0.2260
     69  O          3.7890   61.8030   20.6900 O.2    78  GLU78      -0.2867
     70  CB         5.1850   63.3870   18.2610 C.3    78  GLU78       0.0388
     71  CG         4.7560   64.3940   17.2390 C.3    78  GLU78       0.1160
     72  CD         5.7940   64.5850   16.1770 C.2    78  GLU78       0.3649
     73  OE1        6.2950   63.5730   15.6520 O.co2  78  GLU78      -0.2457
     74  OE2        6.1170   65.7470   15.8680 O.co2  78  GLU78      -0.2457
     75  N         13.1160   57.8260   19.3960 N.3   109  ILE109     -0.1245
     76  CA        13.4170   58.6770   18.2630 C.3   109  ILE109      0.1561
     77  C         14.2360   57.9480   17.1980 C.2   109  ILE109      0.2260
     78  O         13.9890   58.1010   16.0050 O.2   109  ILE109     -0.2867
     79  CB        14.1640   59.9500   18.7270 C.3   109  ILE109      0.0252
     80  CG1       13.1660   60.9150   19.3660 C.3   109  ILE109      0.0019
     81  CG2       14.9010   60.5940   17.5670 C.3   109  ILE109      0.0019
     82  CD1       13.7970   62.1760   19.9060 C.3   109  ILE109      0.0001
     83  N         12.1820   55.0850   15.4070 N.3   112  MET112     -0.1230
     84  CA        11.3370   55.6540   14.4050 C.3   112  MET112      0.1702
     85  C         12.1260   56.3140   13.2850 C.2   112  MET112      0.2592
     86  O         11.7110   56.2880   12.1200 O.2   112  MET112     -0.2718
     87  CB        10.3910   56.6200   15.0880 C.3   112  MET112      0.0401
     88  CG         9.5520   55.9520   16.1560 C.3   112  MET112      0.0596
     89  SD         7.9770   56.7740   16.2910 S.3   112  MET112     -0.1393
     90  CE         8.5850   58.5290   16.4980 C.3   112  MET112      0.0692
     91  N         13.2770   56.8850   13.6240 N.am  113  LEU113     -0.1980
     92  CA        14.0950   57.5330   12.6140 C.3   113  LEU113      0.1596
     93  C         14.4700   56.5390   11.5300 C.2   113  LEU113      0.2287
     94  O         14.7170   56.9330   10.3860 O.2   113  LEU113     -0.2864
     95  CB        15.3760   58.1030   13.2180 C.3   113  LEU113      0.0297
     96  CG        16.1410   58.9310   12.1850 C.3   113  LEU113      0.0022
     97  CD1       15.2610   60.1220   11.8050 C.3   113  LEU113      0.0001
     98  CD2       17.4700   59.3960   12.7270 C.3   113  LEU113      0.0001
     99  N         12.5760   54.3790   10.2170 N.3   115  SER115     -0.1202
    100  CA        11.4950   54.3150    9.2540 C.3   115  SER115      0.2020
    101  C         11.6850   55.3210    8.1210 C.2   115  SER115      0.2618
    102  O         11.1470   55.1330    7.0280 O.2   115  SER115     -0.2717
    103  CB        10.1540   54.5740    9.9440 C.3   115  SER115      0.2103
    104  OG         9.8870   53.6000   10.9350 O.3   115  SER115     -0.2182
    105  N         12.4460   56.3810    8.3760 N.am  116  LEU116     -0.1979
    106  CA        12.6690   57.4070    7.3600 C.3   116  LEU116      0.1596
    107  C         13.9970   57.2100    6.6200 C.2   116  LEU116      0.2287
    108  O         14.3710   58.0050    5.7450 O.2   116  LEU116     -0.2864
    109  CB        12.6750   58.7970    8.0070 C.3   116  LEU116      0.0297
    110  CG        11.5800   59.1900    8.9900 C.3   116  LEU116      0.0022
    111  CD1       11.7020   60.6640    9.2810 C.3   116  LEU116      0.0001
    112  CD2       10.2260   58.9010    8.4170 C.3   116  LEU116      0.0001
    113  N          9.2040   66.5370    6.7780 N.3   126  GLU126     -0.1245
    114  CA         7.9710   65.7810    6.5940 C.3   126  GLU126      0.1567
    115  C          7.9150   64.8650    5.3690 C.2   126  GLU126      0.2260
    116  O          6.8280   64.5160    4.9110 O.2   126  GLU126     -0.2867
    117  CB         6.7910   66.7460    6.5380 C.3   126  GLU126      0.0388
    118  CG         6.3570   67.2930    7.8800 C.3   126  GLU126      0.1160
    119  CD         5.6940   66.2310    8.7440 C.2   126  GLU126      0.3649
    120  OE1        6.4240   65.4060    9.3500 O.co2 126  GLU126     -0.2457
    121  OE2        4.4390   66.2150    8.8000 O.co2 126  GLU126     -0.2457
    122  N          5.5850   48.5430   15.4460 N.3   167  LEU167     -0.1245
    123  CA         6.3050   49.6090   16.1410 C.3   167  LEU167      0.1561
    124  C          5.4990   50.2820   17.2510 C.2   167  LEU167      0.2260
    125  O          6.0390   50.5860   18.3110 O.2   167  LEU167     -0.2867
    126  CB         6.7650   50.6670   15.1250 C.3   167  LEU167      0.0270
    127  CG         7.7140   50.1390   14.0410 C.3   167  LEU167      0.0019
    128  CD1        7.7120   51.0470   12.8260 C.3   167  LEU167      0.0001
    129  CD2        9.1150   50.0030   14.6300 C.3   167  LEU167      0.0001
@<TRIPOS>BOND
     1   116   115    2
     2   115   114    1
     3   108   107    2
     4    49    48    2
     5    37    36    1
     6   117   114    1
     7   117   118    1
     8   114   113    1
     9   107   106    1
    10    48    47    1
    11   102   101    2
    12    38    36    1
    13   106   109    1
    14   106   105    1
    15    36    35    1
    16    42    41    2
    17   118   119    1
    18    44    43    1
    19   109   110    1
    20   101   105   am
    21   101   100    1
    22    51    52    1
    23    51    50    1
    24    53    52    1
    25    53    54    1
    26    47    50    1
    27    47    46    1
    28   112   110    1
    29   119   121   ar
    30   119   120   ar
    31    41    46   am
    32    41    40    1
    33    35    32    1
    34    27    26    2
    35   110   111    1
    36    32    33    1
    37    32    31    1
    38   100   103    1
    39   100    99    1
    40    39    33   am
    41    39    40    1
    42    43    40    1
    43    43    45    1
    44    33    34    2
    45   103   104    1
    46    26    31   am
    47    26    25    1
    48    94    93    2
    49    28    25    1
    50    28    29    1
    51    25    24    1
    52    93    92    1
    53    97    96    1
    54    86    85    2
    55    96    98    1
    56    96    95    1
    57    16    15    2
    58    29    30    1
    59    24    15   am
    60    24    30    1
    61    92    95    1
    62    92    91    1
    63   128   127    1
    64    60    61    1
    65    60    59    1
    66    15    14    1
    67    85    91   am
    68    85    84    1
    69    12    11    1
    70    62    61    1
    71    62    63    2
    72    10    11   ar
    73    10     8   ar
    74    59    56    1
    75    65    63    1
    76    63    64    1
    77   127   129    1
    78   127   126    1
    79    11     9   ar
    80    84    87    1
    81    84    83    1
    82    14    17    1
    83    14    13    1
    84     8     6   ar
    85    17    18    1
    86    56    55    1
    87    56    57    1
    88    87    88    1
    89   126   123    1
    90   122   123    1
    91     4     3    2
    92     9     7   ar
    93    73    72   ar
    94     3     2    1
    95    74    72   ar
    96     6     7   ar
    97     6     5    1
    98    18    20   ar
    99    18    19   ar
   100    78    77    2
   101    57    58    2
   102   123   124    1
   103    88    89    1
   104    72    71    1
   105    89    90    1
   106    20    22   ar
   107    19    21   ar
   108     5     2    1
   109     2     1    1
   110    77    76    1
   111    71    70    1
   112   124   125    2
   113    81    79    1
   114    22    23   ar
   115    21    23   ar
   116    70    67    1
   117    76    79    1
   118    76    75    1
   119    79    80    1
   120    80    82    1
   121    67    66    1
   122    67    68    1
   123    68    69    2
