@<TRIPOS>MOLECULE
tmp/3adtA00.pdb
 139 134 0 0 0
SMALL
GASTEIGER

@<TRIPOS>ATOM
      1  N         22.6230   70.4950   11.8170 N.3    65  PHE65      -0.1241
      2  CA        22.5930   69.9160   13.1530 C.3    65  PHE65       0.1605
      3  C         21.4670   70.5300   13.9690 C.2    65  PHE65       0.2264
      4  O         20.6360   69.8180   14.5300 O.2    65  PHE65      -0.2867
      5  CB        23.9280   70.1560   13.8620 C.3    65  PHE65       0.0534
      6  CG        24.0520   69.4550   15.1930 C.ar   65  PHE65      -0.0203
      7  CD1       24.2950   68.0860   15.2560 C.ar   65  PHE65      -0.0042
      8  CD2       23.9250   70.1680   16.3880 C.ar   65  PHE65      -0.0042
      9  CE1       24.4130   67.4350   16.4930 C.ar   65  PHE65      -0.0003
     10  CE2       24.0410   69.5290   17.6240 C.ar   65  PHE65      -0.0003
     11  CZ        24.2860   68.1620   17.6770 C.ar   65  PHE65      -0.0000
     12  N         18.1500   69.3030   13.1190 N.3    68  CYS68      -0.1221
     13  CA        17.8460   68.0160   13.7400 C.3    68  CYS68       0.1808
     14  C         17.4550   68.2490   15.1910 C.2    68  CYS68       0.2601
     15  O         16.4880   67.6790   15.6890 O.2    68  CYS68      -0.2717
     16  CB        19.0720   67.1030   13.7180 C.3    68  CYS68       0.0970
     17  SG        19.6750   66.6780   12.0870 S.3    68  CYS68      -0.0800
     18  N         18.2300   69.0920   15.8640 N.am   69  GLN69      -0.1979
     19  CA        17.9890   69.4060   17.2590 C.3    69  GLN69       0.1601
     20  C         16.5530   69.8190   17.5350 C.2    69  GLN69       0.2287
     21  O         15.9300   69.2850   18.4500 O.2    69  GLN69      -0.2864
     22  CB        18.9510   70.5010   17.7240 C.3    69  GLN69       0.0394
     23  CG        20.0620   70.0110   18.6630 C.3    69  GLN69       0.0908
     24  CD        20.8660   68.8440   18.1120 C.2    69  GLN69       0.2608
     25  OE1       21.2500   68.8390   16.9390 O.2    69  GLN69      -0.2717
     26  NE2       21.1420   67.8540   18.9650 N.am   69  GLN69      -0.0878
     27  N         13.9520   69.4180   15.4750 N.3    71  ARG71      -0.1231
     28  CA        13.0390   68.4000   14.9780 C.3    71  ARG71       0.1694
     29  C         12.9330   67.4090   16.1340 C.2    71  ARG71       0.2592
     30  O         11.8650   66.8870   16.4600 O.2    71  ARG71      -0.2718
     31  CB        13.6310   67.6990   13.7540 C.3    71  ARG71       0.0321
     32  CG        12.5960   67.0450   12.8370 C.3    71  ARG71       0.0489
     33  CD        11.7920   65.9350   13.5210 C.3    71  ARG71       0.2205
     34  NE        10.3480   66.1600   13.4240 N.pl3  71  ARG71      -0.0865
     35  CZ         9.4180   65.3520   13.9310 C.cat  71  ARG71       0.5346
     36  NH1        9.7660   64.2480   14.5770 N.pl3  71  ARG71       0.1354
     37  NH2        8.1340   65.6510   13.7980 N.pl3  71  ARG71       0.1354
     38  N         14.0780   67.1800   16.7610 N.am   72  SER72      -0.1952
     39  CA        14.1940   66.2680   17.8860 C.3    72  SER72       0.1924
     40  C         13.2810   66.7250   19.0220 C.2    72  SER72       0.2314
     41  O         12.5680   65.9220   19.6230 O.2    72  SER72      -0.2863
     42  CB        15.6550   66.2300   18.3500 C.3    72  SER72       0.2116
     43  OG        15.9240   65.0900   19.1420 O.3    72  SER72      -0.2180
     44  N         14.6320   59.2490   23.4750 N.3   106  HIS106     -0.1241
     45  CA        15.6520   59.0760   22.4400 C.3   106  HIS106      0.1621
     46  C         15.6880   57.6940   21.8120 C.2   106  HIS106      0.2264
     47  O         15.7630   57.5700   20.5960 O.2   106  HIS106     -0.2867
     48  CB        17.0340   59.4600   22.9630 C.3   106  HIS106      0.0745
     49  CG        17.2950   60.9310   22.9110 C.ar  106  HIS106      0.0817
     50  ND1       17.1400   61.7560   24.0040 N.ar  106  HIS106     -0.2268
     51  CD2       17.6380   61.7360   21.8770 C.ar  106  HIS106      0.1154
     52  CE1       17.3730   63.0060   23.6430 C.ar  106  HIS106      0.1986
     53  NE2       17.6770   63.0210   22.3580 N.ar  106  HIS106     -0.2212
     54  N         13.1160   57.8260   19.3960 N.3   109  ILE109     -0.1231
     55  CA        13.4170   58.6770   18.2630 C.3   109  ILE109      0.1692
     56  C         14.2360   57.9480   17.1980 C.2   109  ILE109      0.2592
     57  O         13.9890   58.1010   16.0050 O.2   109  ILE109     -0.2718
     58  CB        14.1640   59.9500   18.7270 C.3   109  ILE109      0.0266
     59  CG1       13.1660   60.9150   19.3660 C.3   109  ILE109      0.0019
     60  CG2       14.9010   60.5940   17.5670 C.3   109  ILE109      0.0020
     61  CD1       13.7970   62.1760   19.9060 C.3   109  ILE109      0.0001
     62  N         15.2010   57.1460   17.6290 N.am  110  TYR110     -0.1976
     63  CA        16.0440   56.4190   16.6850 C.3   110  TYR110      0.1639
     64  C         15.3440   55.1940   16.0930 C.2   110  TYR110      0.2290
     65  O         15.6430   54.7760   14.9790 O.2   110  TYR110     -0.2864
     66  CB        17.3550   56.0500   17.3760 C.3   110  TYR110      0.0560
     67  CG        18.0980   57.2900   17.8140 C.ar  110  TYR110     -0.0198
     68  CD1       18.6530   57.4010   19.0980 C.ar  110  TYR110     -0.0009
     69  CD2       18.1850   58.3910   16.9610 C.ar  110  TYR110     -0.0009
     70  CE1       19.2630   58.5910   19.5130 C.ar  110  TYR110      0.0417
     71  CE2       18.7920   59.5690   17.3630 C.ar  110  TYR110      0.0417
     72  CZ        19.3250   59.6690   18.6320 C.ar  110  TYR110      0.1957
     73  OH        19.9030   60.8650   18.9960 O.3   110  TYR110     -0.2866
     74  N         13.2770   56.8850   13.6240 N.3   113  LEU113     -0.1245
     75  CA        14.0950   57.5330   12.6140 C.3   113  LEU113      0.1561
     76  C         14.4700   56.5390   11.5300 C.2   113  LEU113      0.2260
     77  O         14.7170   56.9330   10.3860 O.2   113  LEU113     -0.2867
     78  CB        15.3760   58.1030   13.2180 C.3   113  LEU113      0.0270
     79  CG        16.1410   58.9310   12.1850 C.3   113  LEU113      0.0019
     80  CD1       15.2610   60.1220   11.8050 C.3   113  LEU113      0.0001
     81  CD2       17.4700   59.3960   12.7270 C.3   113  LEU113      0.0001
     82  N         27.6870   62.6300   13.1190 N.3   146  PHE146     -0.1227
     83  CA        26.5750   62.5270   14.0520 C.3   146  PHE146      0.1736
     84  C         25.4180   61.6660   13.5520 C.2   146  PHE146      0.2595
     85  O         24.6220   61.1720   14.3450 O.2   146  PHE146     -0.2718
     86  CB        26.0890   63.9340   14.4710 C.3   146  PHE146      0.0547
     87  CG        25.1600   64.6060   13.4840 C.ar  146  PHE146     -0.0202
     88  CD1       23.7910   64.3430   13.5000 C.ar  146  PHE146     -0.0042
     89  CD2       25.6490   65.5300   12.5660 C.ar  146  PHE146     -0.0042
     90  CE1       22.9230   64.9940   12.6200 C.ar  146  PHE146     -0.0003
     91  CE2       24.7880   66.1850   11.6800 C.ar  146  PHE146     -0.0003
     92  CZ        23.4220   65.9140   11.7100 C.ar  146  PHE146     -0.0000
     93  N         25.3370   61.4640   12.2410 N.am  147  MET147     -0.1979
     94  CA        24.2580   60.6660   11.6750 C.3   147  MET147      0.1605
     95  C         24.6310   59.2400   11.3060 C.2   147  MET147      0.2287
     96  O         23.7680   58.3760   11.1900 O.2   147  MET147     -0.2864
     97  CB        23.6750   61.3720   10.4530 C.3   147  MET147      0.0413
     98  CG        22.6180   62.4060   10.8050 C.3   147  MET147      0.0598
     99  SD        21.2880   61.6770   11.8150 S.3   147  MET147     -0.1393
    100  CE        20.2900   60.9310   10.5310 C.3   147  MET147      0.0692
    101  N         23.2480   56.1670   13.1490 N.3   150  LYS150     -0.1245
    102  CA        21.8050   56.0540   13.0100 C.3   150  LYS150      0.1561
    103  C         21.5530   55.2010   11.7800 C.2   150  LYS150      0.2260
    104  O         20.6960   54.3200   11.7840 O.2   150  LYS150     -0.2867
    105  CB        21.1710   57.4350   12.8250 C.3   150  LYS150      0.0271
    106  CG        21.6720   58.5040   13.7850 C.3   150  LYS150      0.0035
    107  CD        21.2670   58.2430   15.2000 C.3   150  LYS150      0.0206
    108  CE        22.1990   58.9800   16.1330 C.3   150  LYS150      0.1093
    109  NZ        22.4290   60.3850   15.7050 N.3   150  LYS150     -0.1314
    110  N         25.5890   59.3080   21.0440 N.3   232  HIS232     -0.1241
    111  CA        25.0920   60.6210   20.6600 C.3   232  HIS232      0.1621
    112  C         25.4120   61.6810   21.6960 C.2   232  HIS232      0.2264
    113  O         25.9230   62.7440   21.3590 O.2   232  HIS232     -0.2867
    114  CB        23.5800   60.6040   20.4470 C.3   232  HIS232      0.0745
    115  CG        23.0080   61.9560   20.1510 C.ar  232  HIS232      0.0817
    116  ND1       23.0150   62.5060   18.8880 N.ar  232  HIS232     -0.2268
    117  CD2       22.4970   62.9060   20.9710 C.ar  232  HIS232      0.1154
    118  CE1       22.5380   63.7360   18.9430 C.ar  232  HIS232      0.1986
    119  NE2       22.2170   64.0040   20.1960 N.ar  232  HIS232     -0.2212
    120  N         15.8470   69.5350   25.7180 N.3   252  LEU252     -0.1245
    121  CA        16.8870   68.5860   25.3500 C.3   252  LEU252      0.1561
    122  C         17.9970   68.5340   26.4020 C.2   252  LEU252      0.2260
    123  O         18.5770   67.4770   26.6470 O.2   252  LEU252     -0.2867
    124  CB        17.4570   68.9640   23.9790 C.3   252  LEU252      0.0270
    125  CG        17.1060   68.0940   22.7610 C.3   252  LEU252      0.0019
    126  CD1       15.7700   67.3870   22.9360 C.3   252  LEU252      0.0001
    127  CD2       17.0910   68.9780   21.5260 C.3   252  LEU252      0.0001
    128  N         19.3460   64.9210   28.5860 N.3   256  TYR256     -0.1241
    129  CA        20.7300   64.4330   28.6450 C.3   256  TYR256      0.1605
    130  C         21.3550   64.5590   30.0400 C.2   256  TYR256      0.2264
    131  O         22.3490   63.9040   30.3460 O.2   256  TYR256     -0.2867
    132  CB        21.6140   65.2020   27.6570 C.3   256  TYR256      0.0534
    133  CG        21.1130   65.2760   26.2270 C.ar  256  TYR256     -0.0201
    134  CD1       20.7650   64.1250   25.5160 C.ar  256  TYR256     -0.0009
    135  CD2       21.0490   66.5000   25.5630 C.ar  256  TYR256     -0.0009
    136  CE1       20.3720   64.1950   24.1730 C.ar  256  TYR256      0.0417
    137  CE2       20.6570   66.5810   24.2260 C.ar  256  TYR256      0.0417
    138  CZ        20.3250   65.4280   23.5370 C.ar  256  TYR256      0.1957
    139  OH        19.9800   65.5180   22.2080 O.3   256  TYR256     -0.2866
@<TRIPOS>BOND
     1    77    76    2
     2    97    98    1
     3    97    94    1
     4   100    99    1
     5    98    99    1
     6    96    95    2
     7    95    94    1
     8    76    75    1
     9    94    93    1
    10    91    92   ar
    11    91    89   ar
    12    92    90   ar
    13   103   104    2
    14   103   102    1
    15    80    79    1
    16     1     2    1
    17    17    16    1
    18    79    81    1
    19    79    78    1
    20    93    84   am
    21    89    87   ar
    22    75    78    1
    23    75    74    1
    24    90    88   ar
    25   105   102    1
    26   105   106    1
    27    32    33    1
    28    32    31    1
    29   102   101    1
    30    12    13    1
    31    82    83    1
    32     2     5    1
    33     2     3    1
    34    34    33    1
    35    34    35    2
    36    87    88   ar
    37    87    86    1
    38    84    83    1
    39    84    85    2
    40    16    13    1
    41    13    14    1
    42    31    28    1
    43   106   107    1
    44    37    35    1
    45     5     6    1
    46    35    36    1
    47     3     4    2
    48    83    86    1
    49    28    27    1
    50    28    29    1
    51    65    64    2
    52    14    15    2
    53    14    18   am
    54     6     7   ar
    55     6     8   ar
    56   107   108    1
    57     7     9   ar
    58   109   108    1
    59    18    19    1
    60    57    56    2
    61    64    63    1
    62    29    30    2
    63    29    38   am
    64     8    10   ar
    65     9    11   ar
    66    63    66    1
    67    63    62    1
    68    38    39    1
    69    25    24    2
    70    69    71   ar
    71    69    67   ar
    72    56    62   am
    73    56    55    1
    74    19    20    1
    75    19    22    1
    76    71    72   ar
    77    66    67    1
    78    20    21    2
    79    60    58    1
    80    10    11   ar
    81    22    23    1
    82    67    68   ar
    83    39    42    1
    84    39    40    1
    85    24    23    1
    86    24    26   am
    87    55    58    1
    88    55    54    1
    89    42    43    1
    90    72    73    1
    91    72    70   ar
    92    58    59    1
    93   116   118   ar
    94   116   115   ar
    95   118   119   ar
    96    40    41    2
    97    68    70   ar
    98    59    61    1
    99   115   114    1
   100   115   117   ar
   101   119   117   ar
   102   114   111    1
   103    47    46    2
   104   111   110    1
   105   111   112    1
   106   113   112    2
   107   127   125    1
   108    46    45    1
   109    51    53   ar
   110    51    49   ar
   111   139   138    1
   112    53    52   ar
   113    45    48    1
   114    45    44    1
   115   125   126    1
   116   125   124    1
   117    49    48    1
   118    49    50   ar
   119   138   136   ar
   120   138   137   ar
   121    52    50   ar
   122   124   121    1
   123   136   134   ar
   124   137   135   ar
   125   121   120    1
   126   121   122    1
   127   134   133   ar
   128   135   133   ar
   129   133   132    1
   130   122   123    2
   131   132   129    1
   132   128   129    1
   133   129   130    1
   134   130   131    2
