@<TRIPOS>MOLECULE
tmp/3aduB01.pdb
 117 107 0 0 0
SMALL
GASTEIGER

@<TRIPOS>ATOM
      1  N         43.6230   31.3400   48.3940 N.3    54  PHE54      -0.1241
      2  CA        43.4500   31.7530   47.0040 C.3    54  PHE54       0.1605
      3  C         44.7420   32.4360   46.5950 C.2    54  PHE54       0.2264
      4  O         44.7580   33.4110   45.8400 O.2    54  PHE54      -0.2867
      5  CB        42.2490   32.7040   46.8350 C.3    54  PHE54       0.0534
      6  CG        42.4450   34.0740   47.4340 C.ar   54  PHE54      -0.0203
      7  CD1       42.4870   34.2530   48.8120 C.ar   54  PHE54      -0.0042
      8  CD2       42.5520   35.1920   46.6110 C.ar   54  PHE54      -0.0042
      9  CE1       42.6280   35.5250   49.3610 C.ar   54  PHE54      -0.0003
     10  CE2       42.6940   36.4660   47.1500 C.ar   54  PHE54      -0.0003
     11  CZ        42.7320   36.6330   48.5280 C.ar   54  PHE54      -0.0000
     12  N         46.7440   34.2300   42.9130 N.3    57  ILE57      -0.1245
     13  CA        46.8970   35.6020   42.4450 C.3    57  ILE57       0.1561
     14  C         47.9370   36.2640   43.3500 C.2    57  ILE57       0.2260
     15  O         48.2260   37.4560   43.2260 O.2    57  ILE57      -0.2867
     16  CB        45.5690   36.3860   42.5810 C.3    57  ILE57       0.0252
     17  CG1       45.3010   36.7030   44.0570 C.3    57  ILE57       0.0019
     18  CG2       44.4150   35.5540   42.0370 C.3    57  ILE57       0.0019
     19  CD1       44.1200   37.6110   44.2890 C.3    57  ILE57       0.0001
     20  N         43.6550   43.1180   44.3680 N.3    71  ILE71      -0.1245
     21  CA        42.3110   42.5880   44.2060 C.3    71  ILE71       0.1561
     22  C         41.9220   42.5830   42.7290 C.2    71  ILE71       0.2260
     23  O         41.3240   41.6240   42.2440 O.2    71  ILE71      -0.2867
     24  CB        41.2810   43.4000   45.0160 C.3    71  ILE71       0.0252
     25  CG1       41.5430   43.2050   46.5040 C.3    71  ILE71       0.0019
     26  CG2       39.8730   42.9440   44.6860 C.3    71  ILE71       0.0019
     27  CD1       40.4460   43.7040   47.3830 C.3    71  ILE71       0.0001
     28  N         43.6200   39.7440   40.8300 N.3    74  GLY74      -0.1210
     29  CA        43.0370   38.4270   41.0120 C.3    74  GLY74       0.1956
     30  C         41.7750   38.2310   40.1940 C.2    74  GLY74       0.2612
     31  O         41.4800   37.1240   39.7460 O.2    74  GLY74      -0.2717
     32  N         41.0250   39.3070   39.9930 N.am   75  CYS75      -0.1970
     33  CA        39.7990   39.2170   39.2190 C.3    75  CYS75       0.1712
     34  C         40.1110   38.9220   37.7520 C.2    75  CYS75       0.2296
     35  O         39.2750   38.3810   37.0340 O.2    75  CYS75      -0.2864
     36  CB        38.9920   40.5110   39.3450 C.3    75  CYS75       0.0983
     37  SG        37.2660   40.3330   38.8450 S.3    75  CYS75      -0.0798
     38  N         41.3360   35.2100   37.4120 N.3    78  ARG78      -0.1245
     39  CA        40.1390   34.3840   37.5200 C.3    78  ARG78       0.1563
     40  C         39.2730   34.4510   36.2700 C.2    78  ARG78       0.2260
     41  O         38.6040   33.4890   35.9220 O.2    78  ARG78      -0.2867
     42  CB        39.3170   34.8100   38.7300 C.3    78  ARG78       0.0307
     43  CG        37.9420   34.2110   38.7730 C.3    78  ARG78       0.0489
     44  CD        37.9470   32.7000   38.8530 C.3    78  ARG78       0.2205
     45  NE        36.6340   32.1570   38.5060 N.pl3  78  ARG78      -0.0865
     46  CZ        36.4250   31.2920   37.5190 C.cat  78  ARG78       0.5346
     47  NH1       37.4430   30.8680   36.7850 N.pl3  78  ARG78       0.1354
     48  NH2       35.2010   30.8650   37.2460 N.pl3  78  ARG78       0.1354
     49  N         28.5560   35.8690   36.8920 N.3   120  LEU120     -0.1245
     50  CA        29.0590   36.4780   38.0980 C.3   120  LEU120      0.1561
     51  C         27.8720   36.8100   38.9990 C.2   120  LEU120      0.2260
     52  O         27.9960   36.7980   40.2260 O.2   120  LEU120     -0.2867
     53  CB        29.8360   37.7490   37.7730 C.3   120  LEU120      0.0270
     54  CG        30.5890   38.2820   38.9930 C.3   120  LEU120      0.0019
     55  CD1       31.5770   37.2100   39.4480 C.3   120  LEU120      0.0001
     56  CD2       31.3120   39.5880   38.6680 C.3   120  LEU120      0.0001
     57  N         26.8530   34.4170   41.5220 N.3   123  LEU123     -0.1245
     58  CA        27.7200   34.3950   42.6900 C.3   123  LEU123      0.1561
     59  C         27.5450   35.5830   43.6290 C.2   123  LEU123      0.2260
     60  O         28.1150   35.6080   44.7180 O.2   123  LEU123     -0.2867
     61  CB        29.1750   34.3240   42.2410 C.3   123  LEU123      0.0270
     62  CG        29.8670   32.9910   41.9560 C.3   123  LEU123      0.0019
     63  CD1       28.9820   31.9380   41.3000 C.3   123  LEU123      0.0001
     64  CD2       31.0180   33.3500   41.0750 C.3   123  LEU123      0.0001
     65  N         29.8420   39.6400   46.6880 N.3   129  VAL129     -0.1231
     66  CA        30.1140   38.5410   45.7810 C.3   129  VAL129      0.1692
     67  C         30.8900   37.3940   46.4220 C.2   129  VAL129      0.2592
     68  O         31.8080   37.5990   47.2120 O.2   129  VAL129     -0.2718
     69  CB        30.8830   39.0390   44.5350 C.3   129  VAL129      0.0266
     70  CG1       32.0520   39.9300   44.9530 C.3   129  VAL129      0.0020
     71  CG2       31.3770   37.8450   43.7290 C.3   129  VAL129      0.0020
     72  N         30.4980   36.1810   46.0570 N.am  130  LEU130     -0.1966
     73  CA        31.1020   34.9470   46.5430 C.3   130  LEU130      0.1728
     74  C         32.3710   34.7070   45.7290 C.2   130  LEU130      0.2616
     75  O         32.3150   34.6440   44.5000 O.2   130  LEU130     -0.2715
     76  CB        30.1120   33.8060   46.3190 C.3   130  LEU130      0.0311
     77  CG        30.2660   32.4690   47.0220 C.3   130  LEU130      0.0022
     78  CD1       30.1860   32.6840   48.5290 C.3   130  LEU130      0.0001
     79  CD2       29.1630   31.5240   46.5520 C.3   130  LEU130      0.0001
     80  N         33.5160   34.5790   46.3900 N.am  131  ILE131     -0.1963
     81  CA        34.7500   34.3590   45.6430 C.3   131  ILE131      0.1727
     82  C         35.5110   33.0820   46.0020 C.2   131  ILE131      0.2616
     83  O         35.1160   32.3320   46.8960 O.2   131  ILE131     -0.2715
     84  CB        35.7030   35.5960   45.7460 C.3   131  ILE131      0.0290
     85  CG1       36.2170   35.7840   47.1730 C.3   131  ILE131      0.0022
     86  CG2       34.9620   36.8440   45.3310 C.3   131  ILE131      0.0023
     87  CD1       37.4800   35.0130   47.4770 C.3   131  ILE131      0.0001
     88  N         36.5960   32.8460   45.2680 N.am  132  SER132     -0.1950
     89  CA        37.4600   31.6810   45.4440 C.3   132  SER132      0.1924
     90  C         36.7110   30.3500   45.5180 C.2   132  SER132      0.2314
     91  O         36.6440   29.7100   46.5620 O.2   132  SER132     -0.2863
     92  CB        38.3370   31.8600   46.6850 C.3   132  SER132      0.2116
     93  OG        39.3290   30.8470   46.7580 O.3   132  SER132     -0.2180
     94  N         33.4160   38.3040   49.3640 N.3   138  MET138     -0.1245
     95  CA        33.9200   39.6600   49.4600 C.3   138  MET138      0.1570
     96  C         32.7610   40.6530   49.4690 C.2   138  MET138      0.2261
     97  O         32.0300   40.7930   48.4960 O.2   138  MET138     -0.2867
     98  CB        34.8790   39.9580   48.3080 C.3   138  MET138      0.0387
     99  CG        35.6620   41.2450   48.4970 C.3   138  MET138      0.0595
    100  SD        37.0860   41.3230   47.4080 S.3   138  MET138     -0.1393
    101  CE        38.1240   40.0860   48.1420 C.3   138  MET138      0.0692
    102  N         34.3130   46.7920   48.5710 N.3   143  LEU143     -0.1245
    103  CA        34.7840   47.0340   47.2170 C.3   143  LEU143      0.1561
    104  C         34.5160   48.4680   46.7730 C.2   143  LEU143      0.2260
    105  O         35.4120   49.1460   46.2700 O.2   143  LEU143     -0.2867
    106  CB        34.1260   46.0450   46.2520 C.3   143  LEU143      0.0270
    107  CG        34.5350   44.5870   46.4790 C.3   143  LEU143      0.0019
    108  CD1       33.5890   43.6650   45.7390 C.3   143  LEU143      0.0001
    109  CD2       35.9710   44.3730   46.0260 C.3   143  LEU143      0.0001
    110  N         33.6200   47.3110   40.5030 N.3   154  MET154     -0.1245
    111  CA        32.6300   46.2660   40.7620 C.3   154  MET154      0.1570
    112  C         31.2060   46.7490   41.0060 C.2   154  MET154      0.2261
    113  O         30.2500   46.0610   40.6700 O.2   154  MET154     -0.2867
    114  CB        33.0750   45.4150   41.9510 C.3   154  MET154      0.0387
    115  CG        34.0370   44.3070   41.5760 C.3   154  MET154      0.0595
    116  SD        33.2620   42.9570   40.6330 S.3   154  MET154     -0.1393
    117  CE        33.3590   41.6350   41.8380 C.3   154  MET154      0.0692
@<TRIPOS>BOND
     1    41    40    2
     2    40    39    1
     3    47    46    1
     4    49    50    1
     5    35    34    2
     6    48    46    1
     7    38    39    1
     8    46    45    2
     9    39    42    1
    10    34    33    1
    11    53    50    1
    12    53    54    1
    13    50    51    1
    14    45    44    1
    15    56    54    1
    16    42    43    1
    17    43    44    1
    18    37    36    1
    19    54    55    1
    20    51    52    2
    21    33    36    1
    22    33    32    1
    23    31    30    2
    24    32    30   am
    25    30    29    1
    26   110   111    1
    27   116   115    1
    28   116   117    1
    29   113   112    2
    30   111   112    1
    31   111   114    1
    32    28    29    1
    33    64    62    1
    34    63    62    1
    35    57    58    1
    36   115   114    1
    37    62    61    1
    38    18    16    1
    39    61    58    1
    40    23    22    2
    41    13    16    1
    42    13    12    1
    43    13    14    1
    44    16    17    1
    45    58    59    1
    46    22    21    1
    47    15    14    2
    48    59    60    2
    49    71    69    1
    50    17    19    1
    51    21    20    1
    52    21    24    1
    53    75    74    2
    54    69    70    1
    55    69    66    1
    56    26    24    1
    57    24    25    1
    58    88    89    1
    59    88    82   am
    60    86    84    1
    61    89    90    1
    62    89    92    1
    63    90    91    2
    64    81    84    1
    65    81    82    1
    66    81    80    1
    67    74    80   am
    68    74    73    1
    69   108   107    1
    70    84    85    1
    71    66    67    1
    72    66    65    1
    73     4     3    2
    74    82    83    2
    75   109   107    1
    76    72    67   am
    77    72    73    1
    78   106   107    1
    79   106   103    1
    80   105   104    2
    81    76    73    1
    82    76    77    1
    83    67    68    2
    84    25    27    1
    85    79    77    1
    86     3     2    1
    87     8    10   ar
    88     8     6   ar
    89    92    93    1
    90   104   103    1
    91     5     2    1
    92     5     6    1
    93     2     1    1
    94    77    78    1
    95    10    11   ar
    96    85    87    1
    97   103   102    1
    98   100   101    1
    99   100    99    1
   100     6     7   ar
   101    98    99    1
   102    98    95    1
   103    97    96    2
   104    11     9   ar
   105     7     9   ar
   106    94    95    1
   107    95    96    1
