@<TRIPOS>MOLECULE
tmp/3aduB02.pdb
 110 107 0 0 0
SMALL
GASTEIGER

@<TRIPOS>ATOM
      1  N         42.2620   43.6520   42.0140 N.3    72  PHE72      -0.1241
      2  CA        41.9450   43.7340   40.5930 C.3    72  PHE72       0.1605
      3  C         42.7250   42.6680   39.8350 C.2    72  PHE72       0.2264
      4  O         42.2080   42.0460   38.9120 O.2    72  PHE72      -0.2867
      5  CB        42.3100   45.1030   40.0270 C.3    72  PHE72       0.0534
      6  CG        42.1280   45.2070   38.5350 C.ar   72  PHE72      -0.0203
      7  CD1       40.8650   45.4210   37.9830 C.ar   72  PHE72      -0.0042
      8  CD2       43.2170   45.0630   37.6770 C.ar   72  PHE72      -0.0042
      9  CE1       40.6900   45.4910   36.5970 C.ar   72  PHE72      -0.0003
     10  CE2       43.0520   45.1300   36.2940 C.ar   72  PHE72      -0.0003
     11  CZ        41.7880   45.3440   35.7530 C.ar   72  PHE72      -0.0000
     12  N         41.0250   39.3070   39.9930 N.3    75  CYS75      -0.1221
     13  CA        39.7990   39.2170   39.2190 C.3    75  CYS75       0.1808
     14  C         40.1110   38.9220   37.7520 C.2    75  CYS75       0.2601
     15  O         39.2750   38.3810   37.0340 O.2    75  CYS75      -0.2717
     16  CB        38.9920   40.5110   39.3450 C.3    75  CYS75       0.0970
     17  SG        37.2660   40.3330   38.8450 S.3    75  CYS75      -0.0800
     18  N         41.3150   39.2770   37.3080 N.am   76  GLN76      -0.1979
     19  CA        41.7300   39.0150   35.9310 C.3    76  GLN76       0.1601
     20  C         42.1660   37.5670   35.7890 C.2    76  GLN76       0.2287
     21  O         41.7120   36.8610   34.8880 O.2    76  GLN76      -0.2864
     22  CB        42.9090   39.8860   35.5190 C.3    76  GLN76       0.0394
     23  CG        42.6330   41.3580   35.4310 C.3    76  GLN76       0.0908
     24  CD        43.7810   42.0910   34.7630 C.2    76  GLN76       0.2608
     25  OE1       44.9540   41.7450   34.9650 O.2    76  GLN76      -0.2717
     26  NE2       43.4570   43.1120   33.9670 N.am   76  GLN76      -0.0878
     27  N         39.2840   35.5950   35.5970 N.3    79  SER79      -0.1217
     28  CA        38.4930   35.7790   34.3850 C.3    79  SER79       0.1889
     29  C         39.1160   35.0640   33.2090 C.2    79  SER79       0.2288
     30  O         38.4040   34.6410   32.2960 O.2    79  SER79      -0.2866
     31  CB        38.3510   37.2650   34.0580 C.3    79  SER79       0.2089
     32  OG        37.5730   37.9040   35.0510 O.3    79  SER79      -0.2183
     33  N         32.9670   38.6800   28.0710 N.3   113  HIS113     -0.1241
     34  CA        32.6390   39.6450   29.1170 C.3   113  HIS113      0.1621
     35  C         31.1760   39.5500   29.5120 C.2   113  HIS113      0.2264
     36  O         30.8530   39.4280   30.6900 O.2   113  HIS113     -0.2867
     37  CB        32.9410   41.0680   28.6530 C.3   113  HIS113      0.0745
     38  CG        34.3990   41.3800   28.5930 C.ar  113  HIS113      0.0817
     39  ND1       35.1860   41.0520   27.5110 N.ar  113  HIS113     -0.2268
     40  CD2       35.2270   41.9370   29.5080 C.ar  113  HIS113      0.1154
     41  CE1       36.4380   41.3920   27.7620 C.ar  113  HIS113      0.1986
     42  NE2       36.4900   41.9310   28.9680 N.ar  113  HIS113     -0.2212
     43  N         30.5690   36.4100   31.3100 N.3   116  ILE116     -0.1231
     44  CA        31.1920   36.4560   32.6360 C.3   116  ILE116      0.1692
     45  C         30.3280   37.1500   33.6820 C.2   116  ILE116      0.2592
     46  O         30.0990   36.5920   34.7470 O.2   116  ILE116     -0.2718
     47  CB        32.5650   37.1510   32.5950 C.3   116  ILE116      0.0266
     48  CG1       33.6010   36.1960   32.0130 C.3   116  ILE116      0.0019
     49  CG2       32.9860   37.5810   33.9880 C.3   116  ILE116      0.0020
     50  CD1       34.9460   36.8280   31.8210 C.3   116  ILE116      0.0001
     51  N         29.8480   38.3560   33.3810 N.am  117  TYR117     -0.1976
     52  CA        29.0080   39.1030   34.3150 C.3   117  TYR117      0.1639
     53  C         27.6430   38.4720   34.5090 C.2   117  TYR117      0.2290
     54  O         27.0030   38.6720   35.5450 O.2   117  TYR117     -0.2864
     55  CB        28.8650   40.5550   33.8660 C.3   117  TYR117      0.0560
     56  CG        30.1980   41.2400   33.8380 C.ar  117  TYR117     -0.0198
     57  CD1       31.0190   41.2350   34.9670 C.ar  117  TYR117     -0.0009
     58  CD2       30.7000   41.7890   32.6590 C.ar  117  TYR117     -0.0009
     59  CE1       32.3120   41.7420   34.9200 C.ar  117  TYR117      0.0417
     60  CE2       31.9920   42.3000   32.5990 C.ar  117  TYR117      0.0417
     61  CZ        32.7920   42.2680   33.7320 C.ar  117  TYR117      0.1957
     62  OH        34.0840   42.7340   33.6700 O.3   117  TYR117     -0.2866
     63  N         34.6370   50.0890   40.2110 N.3   153  PHE153     -0.1241
     64  CA        34.7850   49.0220   39.2260 C.3   153  PHE153      0.1605
     65  C         33.6840   47.9680   39.3460 C.2   153  PHE153      0.2264
     66  O         32.9120   47.7570   38.4130 O.2   153  PHE153     -0.2867
     67  CB        36.1550   48.3730   39.4330 C.3   153  PHE153      0.0534
     68  CG        36.4450   47.2250   38.5130 C.ar  153  PHE153     -0.0203
     69  CD1       36.7870   47.4490   37.1820 C.ar  153  PHE153     -0.0042
     70  CD2       36.4190   45.9110   38.9940 C.ar  153  PHE153     -0.0042
     71  CE1       37.1050   46.3820   36.3400 C.ar  153  PHE153     -0.0003
     72  CE2       36.7330   44.8340   38.1640 C.ar  153  PHE153     -0.0003
     73  CZ        37.0790   45.0670   36.8350 C.ar  153  PHE153     -0.0000
     74  N         32.8220   48.8840   31.6070 N.3   239  HIS239     -0.1226
     75  CA        33.9180   48.1060   32.1630 C.3   239  HIS239      0.1752
     76  C         35.1710   48.3180   31.3250 C.2   239  HIS239      0.2595
     77  O         36.2370   48.6370   31.8480 O.2   239  HIS239     -0.2718
     78  CB        33.5590   46.6140   32.1800 C.3   239  HIS239      0.0759
     79  CG        34.7170   45.7230   32.5070 C.ar  239  HIS239      0.0818
     80  ND1       35.1570   45.5140   33.7970 N.ar  239  HIS239     -0.2268
     81  CD2       35.5720   45.0470   31.7040 C.ar  239  HIS239      0.1154
     82  CE1       36.2340   44.7490   33.7710 C.ar  239  HIS239      0.1986
     83  NE2       36.5070   44.4540   32.5150 N.ar  239  HIS239     -0.2212
     84  N         35.0310   48.1240   30.0190 N.am  240  VAL240     -0.1980
     85  CA        36.1350   48.2970   29.0910 C.3   240  VAL240      0.1595
     86  C         36.7240   49.6970   29.2500 C.2   240  VAL240      0.2287
     87  O         37.9370   49.8710   29.2080 O.2   240  VAL240     -0.2864
     88  CB        35.6580   48.0860   27.6360 C.3   240  VAL240      0.0276
     89  CG1       36.7620   48.4300   26.6620 C.3   240  VAL240      0.0022
     90  CG2       35.2330   46.6420   27.4420 C.3   240  VAL240      0.0022
     91  N         39.1870   49.7770   32.1060 N.3   243  LEU243     -0.1245
     92  CA        40.4300   49.1060   31.7390 C.3   243  LEU243      0.1561
     93  C         41.4070   49.9950   30.9840 C.2   243  LEU243      0.2260
     94  O         42.6150   49.8000   31.0720 O.2   243  LEU243     -0.2867
     95  CB        40.1350   47.8630   30.9000 C.3   243  LEU243      0.0270
     96  CG        39.5510   46.6830   31.6670 C.3   243  LEU243      0.0019
     97  CD1       39.0910   45.6140   30.7010 C.3   243  LEU243      0.0001
     98  CD2       40.5960   46.1420   32.6170 C.3   243  LEU243      0.0001
     99  N         47.9130   37.3780   30.6620 N.3   261  TYR261     -0.1241
    100  CA        46.7000   38.1140   31.0020 C.3   261  TYR261      0.1605
    101  C         46.5370   39.4530   30.2940 C.2   261  TYR261      0.2264
    102  O         47.4200   39.8150   29.4880 O.2   261  TYR261     -0.2867
    103  CB        46.6300   38.2970   32.5210 C.3   261  TYR261      0.0534
    104  CG        46.7750   36.9800   33.2420 C.ar  261  TYR261     -0.0201
    105  CD1       48.0330   36.4240   33.4790 C.ar  261  TYR261     -0.0009
    106  CD2       45.6550   36.2250   33.5730 C.ar  261  TYR261     -0.0009
    107  CE1       48.1710   35.1350   34.0180 C.ar  261  TYR261      0.0417
    108  CE2       45.7770   34.9390   34.1070 C.ar  261  TYR261      0.0417
    109  CZ        47.0350   34.3980   34.3230 C.ar  261  TYR261      0.1957
    110  OH        47.1470   33.1130   34.8060 O.3   261  TYR261     -0.2866
@<TRIPOS>BOND
     1    89    88    1
     2    90    88    1
     3    39    41   ar
     4    39    38   ar
     5    88    85    1
     6    41    42   ar
     7    33    34    1
     8    38    37    1
     9    38    40   ar
    10    37    34    1
    11    42    40   ar
    12    85    86    1
    13    85    84    1
    14    34    35    1
    15    87    86    2
    16   102   101    2
    17    35    36    2
    18    84    76   am
    19   101   100    1
    20    99   100    1
    21    97    96    1
    22    95    96    1
    23    95    92    1
    24    93    94    2
    25    93    92    1
    26   100   103    1
    27    43    44    1
    28    76    77    2
    29    76    75    1
    30    74    75    1
    31    96    98    1
    32    81    79   ar
    33    81    83   ar
    34    92    91    1
    35    50    48    1
    36    48    47    1
    37    75    78    1
    38    78    79    1
    39    30    29    2
    40    79    80   ar
    41    83    82   ar
    42   103   104    1
    43    47    44    1
    44    47    49    1
    45    60    58   ar
    46    60    61   ar
    47    44    45    1
    48    58    56   ar
    49    29    28    1
    50   104   105   ar
    51   104   106   ar
    52    51    45   am
    53    51    52    1
    54   105   107   ar
    55   106   108   ar
    56    62    61    1
    57    45    46    2
    58    61    59   ar
    59    82    80   ar
    60    56    55    1
    61    56    57   ar
    62    55    52    1
    63    26    24   am
    64   107   109   ar
    65    31    28    1
    66    31    32    1
    67   108   109   ar
    68    52    53    1
    69   109   110    1
    70    28    27    1
    71    53    54    2
    72    24    25    2
    73    24    23    1
    74    21    20    2
    75    59    57   ar
    76    23    22    1
    77    22    19    1
    78    11    10   ar
    79    11     9   ar
    80    20    19    1
    81    19    18    1
    82    10     8   ar
    83    71    73   ar
    84    71    69   ar
    85     9     7   ar
    86    73    72   ar
    87    15    14    2
    88    69    68   ar
    89    18    14   am
    90     8     6   ar
    91    14    13    1
    92     7     6   ar
    93    72    70   ar
    94    66    65    2
    95    68    70   ar
    96    68    67    1
    97     6     5    1
    98    17    16    1
    99     4     3    2
   100    13    16    1
   101    13    12    1
   102    64    65    1
   103    64    67    1
   104    64    63    1
   105     3     2    1
   106     5     2    1
   107     2     1    1
