@<TRIPOS>MOLECULE
tmp/3aduB00.pdb
 149 141 0 0 0
SMALL
GASTEIGER

@<TRIPOS>ATOM
      1  N         31.3920   24.3690   34.1080 N.3    20  PHE20      -0.1228
      2  CA        31.5150   25.3420   35.1890 C.3    20  PHE20       0.1721
      3  C         31.4850   24.7420   36.5880 C.2    20  PHE20       0.2437
      4  O         30.5190   24.0850   36.9800 O.2    20  PHE20      -0.2733
      5  CB        30.4190   26.4000   35.0470 C.3    20  PHE20       0.0547
      6  CG        30.4150   27.0770   33.7110 C.ar   20  PHE20      -0.0202
      7  CD1       31.4790   27.8900   33.3240 C.ar   20  PHE20      -0.0042
      8  CD2       29.3790   26.8620   32.8100 C.ar   20  PHE20      -0.0042
      9  CE1       31.5090   28.4750   32.0530 C.ar   20  PHE20      -0.0003
     10  CE2       29.4040   27.4470   31.5320 C.ar   20  PHE20      -0.0003
     11  CZ        30.4690   28.2510   31.1570 C.ar   20  PHE20      -0.0000
     12  N         32.5540   24.9680   37.3650 N.am   21  PRO21      -0.2718
     13  CA        32.6890   24.4620   38.7380 C.3    21  PRO21       0.1535
     14  C         31.5840   24.9550   39.6760 C.2    21  PRO21       0.2598
     15  O         30.7860   24.1710   40.1980 O.2    21  PRO21      -0.2715
     16  CB        34.0670   24.9760   39.1600 C.3    21  PRO21       0.0310
     17  CG        34.8160   25.0420   37.8580 C.3    21  PRO21       0.0237
     18  CD        33.7850   25.6580   36.9420 C.3    21  PRO21       0.0939
     19  N         31.5420   26.2630   39.8840 N.am   22  LEU22      -0.1978
     20  CA        30.5520   26.8460   40.7640 C.3    22  LEU22       0.1596
     21  C         29.3230   27.2590   39.9820 C.2    22  LEU22       0.2287
     22  O         29.3760   28.1650   39.1490 O.2    22  LEU22      -0.2864
     23  CB        31.1480   28.0490   41.4800 C.3    22  LEU22       0.0297
     24  CG        30.2480   28.6490   42.5500 C.3    22  LEU22       0.0022
     25  CD1       29.8980   27.5950   43.6000 C.3    22  LEU22       0.0001
     26  CD2       30.9680   29.8260   43.1810 C.3    22  LEU22       0.0001
     27  N         41.0250   39.3070   39.9930 N.3    75  CYS75      -0.1235
     28  CA        39.7990   39.2170   39.2190 C.3    75  CYS75       0.1677
     29  C         40.1110   38.9220   37.7520 C.2    75  CYS75       0.2270
     30  O         39.2750   38.3810   37.0340 O.2    75  CYS75      -0.2867
     31  CB        38.9920   40.5110   39.3450 C.3    75  CYS75       0.0956
     32  SG        37.2660   40.3330   38.8450 S.3    75  CYS75      -0.0801
     33  N         41.3360   35.2100   37.4120 N.3    78  ARG78      -0.1231
     34  CA        40.1390   34.3840   37.5200 C.3    78  ARG78       0.1694
     35  C         39.2730   34.4510   36.2700 C.2    78  ARG78       0.2592
     36  O         38.6040   33.4890   35.9220 O.2    78  ARG78      -0.2718
     37  CB        39.3170   34.8100   38.7300 C.3    78  ARG78       0.0321
     38  CG        37.9420   34.2110   38.7730 C.3    78  ARG78       0.0489
     39  CD        37.9470   32.7000   38.8530 C.3    78  ARG78       0.2205
     40  NE        36.6340   32.1570   38.5060 N.pl3  78  ARG78      -0.0865
     41  CZ        36.4250   31.2920   37.5190 C.cat  78  ARG78       0.5346
     42  NH1       37.4430   30.8680   36.7850 N.pl3  78  ARG78       0.1354
     43  NH2       35.2010   30.8650   37.2460 N.pl3  78  ARG78       0.1354
     44  N         39.2840   35.5950   35.5970 N.am   79  SER79      -0.1952
     45  CA        38.4930   35.7790   34.3850 C.3    79  SER79       0.1924
     46  C         39.1160   35.0640   33.2090 C.2    79  SER79       0.2314
     47  O         38.4040   34.6410   32.2960 O.2    79  SER79      -0.2863
     48  CB        38.3510   37.2650   34.0580 C.3    79  SER79       0.2116
     49  OG        37.5730   37.9040   35.0510 O.3    79  SER79      -0.2180
     50  N         38.1640   31.5980   33.6140 N.3    82  ALA82      -0.1245
     51  CA        36.7560   31.4590   33.2400 C.3    82  ALA82       0.1562
     52  C         36.5780   31.3150   31.7350 C.2    82  ALA82       0.2260
     53  O         35.7720   30.5070   31.2780 O.2    82  ALA82      -0.2867
     54  CB        35.9670   32.6540   33.7420 C.3    82  ALA82       0.0290
     55  N         36.7340   28.0210   30.5390 N.3    85  GLU85      -0.1231
     56  CA        35.5140   27.3420   30.9260 C.3    85  GLU85       0.1699
     57  C         34.4280   27.6440   29.9250 C.2    85  GLU85       0.2592
     58  O         33.7020   26.7530   29.5030 O.2    85  GLU85      -0.2718
     59  CB        35.0980   27.7960   32.3120 C.3    85  GLU85       0.0402
     60  CG        36.0090   27.2600   33.3790 C.3    85  GLU85       0.1161
     61  CD        35.7400   27.8580   34.7330 C.2    85  GLU85       0.3649
     62  OE1       34.5690   28.2150   34.9920 O.co2  85  GLU85      -0.2457
     63  OE2       36.6960   27.9550   35.5410 O.co2  85  GLU85      -0.2457
     64  N         34.3290   28.9040   29.5250 N.am   86  ILE86      -0.1980
     65  CA        33.3230   29.3060   28.5580 C.3    86  ILE86       0.1595
     66  C         33.6140   28.7640   27.1540 C.2    86  ILE86       0.2287
     67  O         32.7020   28.3430   26.4500 O.2    86  ILE86      -0.2864
     68  CB        33.2130   30.8400   28.4770 C.3    86  ILE86       0.0276
     69  CG1       32.8970   31.4140   29.8600 C.3    86  ILE86       0.0022
     70  CG2       32.1290   31.2300   27.4750 C.3    86  ILE86       0.0022
     71  CD1       32.9640   32.9290   29.9390 C.3    86  ILE86       0.0001
     72  N         30.5690   36.4100   31.3100 N.3   116  ILE116     -0.1245
     73  CA        31.1920   36.4560   32.6360 C.3   116  ILE116      0.1561
     74  C         30.3280   37.1500   33.6820 C.2   116  ILE116      0.2260
     75  O         30.0990   36.5920   34.7470 O.2   116  ILE116     -0.2867
     76  CB        32.5650   37.1510   32.5950 C.3   116  ILE116      0.0252
     77  CG1       33.6010   36.1960   32.0130 C.3   116  ILE116      0.0019
     78  CG2       32.9860   37.5810   33.9880 C.3   116  ILE116      0.0019
     79  CD1       34.9460   36.8280   31.8210 C.3   116  ILE116      0.0001
     80  N         27.1880   35.2240   34.6620 N.3   119  MET119     -0.1230
     81  CA        27.4410   34.1500   35.6170 C.3   119  MET119      0.1702
     82  C         27.9530   34.6940   36.9460 C.2   119  MET119      0.2592
     83  O         27.8010   34.0720   38.0000 O.2   119  MET119     -0.2718
     84  CB        28.4420   33.1570   35.0310 C.3   119  MET119      0.0401
     85  CG        27.9560   32.4910   33.7530 C.3   119  MET119      0.0596
     86  SD        29.0300   31.1550   33.2250 S.3   119  MET119     -0.1393
     87  CE        28.2110   29.7930   34.0160 C.3   119  MET119      0.0692
     88  N         28.5560   35.8690   36.8920 N.am  120  LEU120     -0.1980
     89  CA        29.0590   36.4780   38.0980 C.3   120  LEU120      0.1596
     90  C         27.8720   36.8100   38.9990 C.2   120  LEU120      0.2287
     91  O         27.9960   36.7980   40.2260 O.2   120  LEU120     -0.2864
     92  CB        29.8360   37.7490   37.7730 C.3   120  LEU120      0.0297
     93  CG        30.5890   38.2820   38.9930 C.3   120  LEU120      0.0022
     94  CD1       31.5770   37.2100   39.4480 C.3   120  LEU120      0.0001
     95  CD2       31.3120   39.5880   38.6680 C.3   120  LEU120      0.0001
     96  N         26.8530   34.4170   41.5220 N.3   123  LEU123     -0.1245
     97  CA        27.7200   34.3950   42.6900 C.3   123  LEU123      0.1561
     98  C         27.5450   35.5830   43.6290 C.2   123  LEU123      0.2260
     99  O         28.1150   35.6080   44.7180 O.2   123  LEU123     -0.2867
    100  CB        29.1750   34.3240   42.2410 C.3   123  LEU123      0.0270
    101  CG        29.8670   32.9910   41.9560 C.3   123  LEU123      0.0019
    102  CD1       28.9820   31.9380   41.3000 C.3   123  LEU123      0.0001
    103  CD2       31.0180   33.3500   41.0750 C.3   123  LEU123      0.0001
    104  N         29.8420   39.6400   46.6880 N.3   129  VAL129     -0.1231
    105  CA        30.1140   38.5410   45.7810 C.3   129  VAL129      0.1692
    106  C         30.8900   37.3940   46.4220 C.2   129  VAL129      0.2592
    107  O         31.8080   37.5990   47.2120 O.2   129  VAL129     -0.2718
    108  CB        30.8830   39.0390   44.5350 C.3   129  VAL129      0.0266
    109  CG1       32.0520   39.9300   44.9530 C.3   129  VAL129      0.0020
    110  CG2       31.3770   37.8450   43.7290 C.3   129  VAL129      0.0020
    111  N         30.4980   36.1810   46.0570 N.am  130  LEU130     -0.1966
    112  CA        31.1020   34.9470   46.5430 C.3   130  LEU130      0.1728
    113  C         32.3710   34.7070   45.7290 C.2   130  LEU130      0.2616
    114  O         32.3150   34.6440   44.5000 O.2   130  LEU130     -0.2715
    115  CB        30.1120   33.8060   46.3190 C.3   130  LEU130      0.0311
    116  CG        30.2660   32.4690   47.0220 C.3   130  LEU130      0.0022
    117  CD1       30.1860   32.6840   48.5290 C.3   130  LEU130      0.0001
    118  CD2       29.1630   31.5240   46.5520 C.3   130  LEU130      0.0001
    119  N         33.5160   34.5790   46.3900 N.am  131  ILE131     -0.1963
    120  CA        34.7500   34.3590   45.6430 C.3   131  ILE131      0.1727
    121  C         35.5110   33.0820   46.0020 C.2   131  ILE131      0.2617
    122  O         35.1160   32.3320   46.8960 O.2   131  ILE131     -0.2715
    123  CB        35.7030   35.5960   45.7460 C.3   131  ILE131      0.0290
    124  CG1       36.2170   35.7840   47.1730 C.3   131  ILE131      0.0022
    125  CG2       34.9620   36.8440   45.3310 C.3   131  ILE131      0.0023
    126  CD1       37.4800   35.0130   47.4770 C.3   131  ILE131      0.0001
    127  N         36.5960   32.8460   45.2680 N.am  132  SER132     -0.1936
    128  CA        37.4600   31.6810   45.4440 C.3   132  SER132      0.2055
    129  C         36.7110   30.3500   45.5180 C.2   132  SER132      0.2642
    130  O         36.6440   29.7100   46.5620 O.2   132  SER132     -0.2714
    131  CB        38.3370   31.8600   46.6850 C.3   132  SER132      0.2130
    132  OG        39.3290   30.8470   46.7580 O.3   132  SER132     -0.2179
    133  N         36.1480   29.9340   44.3930 N.am  133  GLU133     -0.1976
    134  CA        35.4200   28.6770   44.3380 C.3   133  GLU133      0.1602
    135  C         34.4150   28.5810   45.4770 C.2   133  GLU133      0.2287
    136  O         34.2640   27.5260   46.0840 O.2   133  GLU133     -0.2864
    137  CB        36.4090   27.5120   44.4150 C.3   133  GLU133      0.0415
    138  CG        37.5860   27.6550   43.4430 C.3   133  GLU133      0.1163
    139  CD        38.6920   26.6310   43.6750 C.2   133  GLU133      0.3649
    140  OE1       39.0380   26.3760   44.8520 O.co2 133  GLU133     -0.2457
    141  OE2       39.2260   26.0970   42.6770 O.co2 133  GLU133     -0.2457
    142  N         33.6200   47.3110   40.5030 N.3   154  MET154     -0.1245
    143  CA        32.6300   46.2660   40.7620 C.3   154  MET154      0.1570
    144  C         31.2060   46.7490   41.0060 C.2   154  MET154      0.2261
    145  O         30.2500   46.0610   40.6700 O.2   154  MET154     -0.2867
    146  CB        33.0750   45.4150   41.9510 C.3   154  MET154      0.0387
    147  CG        34.0370   44.3070   41.5760 C.3   154  MET154      0.0595
    148  SD        33.2620   42.9570   40.6330 S.3   154  MET154     -0.1393
    149  CE        33.3590   41.6350   41.8380 C.3   154  MET154      0.0692
@<TRIPOS>BOND
     1    67    66    2
     2    66    65    1
     3    70    68    1
     4    68    65    1
     5    68    69    1
     6    65    64    1
     7    58    57    2
     8    64    57   am
     9    69    71    1
    10    57    56    1
    11    55    56    1
    12    56    59    1
    13    11    10   ar
    14    11     9   ar
    15    53    52    2
    16    72    73    1
    17    10     8   ar
    18    52    51    1
    19    79    77    1
    20    77    76    1
    21     9     7   ar
    22    47    46    2
    23    59    60    1
    24    76    73    1
    25    76    78    1
    26    73    74    1
    27     8     6   ar
    28    46    45    1
    29    86    85    1
    30    86    87    1
    31    51    50    1
    32    51    54    1
    33     7     6   ar
    34    60    61    1
    35    74    75    2
    36     6     5    1
    37    85    84    1
    38    48    45    1
    39    48    49    1
    40     1     2    1
    41    45    44    1
    42    80    81    1
    43    61    62   ar
    44    61    63   ar
    45    84    81    1
    46     5     2    1
    47     2     3    1
    48    44    35   am
    49    81    82    1
    50    36    35    2
    51    35    34    1
    52     3     4    2
    53     3    12   am
    54    42    41    1
    55    88    82   am
    56    88    89    1
    57    18    12    1
    58    18    17    1
    59    82    83    2
    60    30    29    2
    61    43    41    1
    62    12    13    1
    63    33    34    1
    64    41    40    2
    65    34    37    1
    66    29    28    1
    67    92    89    1
    68    92    93    1
    69    17    16    1
    70    89    90    1
    71    40    39    1
    72    95    93    1
    73    37    38    1
    74    13    16    1
    75    13    14    1
    76    38    39    1
    77    32    31    1
    78    93    94    1
    79    90    91    2
    80    22    21    2
    81    28    31    1
    82    28    27    1
    83    14    19   am
    84    14    15    2
    85    19    20    1
    86    21    20    1
    87   142   143    1
    88   148   147    1
    89   148   149    1
    90   145   144    2
    91   143   144    1
    92   143   146    1
    93    20    23    1
    94   103   101    1
    95   102   101    1
    96    23    24    1
    97    96    97    1
    98   147   146    1
    99   101   100    1
   100   100    97    1
   101    24    26    1
   102    24    25    1
   103   141   139   ar
   104    97    98    1
   105   138   139    1
   106   138   137    1
   107    98    99    2
   108   139   140   ar
   109   110   108    1
   110   134   133    1
   111   134   137    1
   112   134   135    1
   113   133   129   am
   114   114   113    2
   115   108   109    1
   116   108   105    1
   117   127   128    1
   118   127   121   am
   119   125   123    1
   120   128   129    1
   121   128   131    1
   122   135   136    2
   123   129   130    2
   124   120   123    1
   125   120   121    1
   126   120   119    1
   127   113   119   am
   128   113   112    1
   129   123   124    1
   130   105   106    1
   131   105   104    1
   132   121   122    2
   133   111   106   am
   134   111   112    1
   135   115   112    1
   136   115   116    1
   137   106   107    2
   138   118   116    1
   139   131   132    1
   140   116   117    1
   141   124   126    1
