@<TRIPOS>MOLECULE
tmp/3advA01.pdb
 136 131 0 0 0
SMALL
GASTEIGER

@<TRIPOS>ATOM
      1  N         -0.9070   56.0160   17.8520 N.3    20  TYR20      -0.1241
      2  CA         0.3450   56.2330   17.1470 C.3    20  TYR20       0.1605
      3  C          0.0410   57.0750   15.8980 C.2    20  TYR20       0.2264
      4  O          0.6740   58.0990   15.6500 O.2    20  TYR20      -0.2867
      5  CB         0.9190   54.8600   16.7720 C.3    20  TYR20       0.0534
      6  CG         2.1310   54.8520   15.8750 C.ar   20  TYR20      -0.0201
      7  CD1        3.4160   54.8450   16.4110 C.ar   20  TYR20      -0.0009
      8  CD2        1.9940   54.7540   14.4890 C.ar   20  TYR20      -0.0009
      9  CE1        4.5310   54.7230   15.6000 C.ar   20  TYR20       0.0417
     10  CE2        3.1170   54.6340   13.6560 C.ar   20  TYR20       0.0417
     11  CZ         4.3770   54.6110   14.2270 C.ar   20  TYR20       0.1957
     12  OH         5.4810   54.4050   13.4440 O.3    20  TYR20      -0.2866
     13  N          1.7970   60.8200   15.4290 N.3    24  PHE24      -0.1228
     14  CA         2.9360   60.9990   14.5270 C.3    24  PHE24       0.1721
     15  C          2.4850   61.2310   13.0870 C.2    24  PHE24       0.2437
     16  O          2.0260   60.3080   12.4240 O.2    24  PHE24      -0.2733
     17  CB         3.8450   59.7650   14.6050 C.3    24  PHE24       0.0547
     18  CG         4.2630   59.4000   16.0120 C.ar   24  PHE24      -0.0202
     19  CD1        5.1390   60.2100   16.7280 C.ar   24  PHE24      -0.0042
     20  CD2        3.7740   58.2500   16.6240 C.ar   24  PHE24      -0.0042
     21  CE1        5.5210   59.8850   18.0310 C.ar   24  PHE24      -0.0003
     22  CE2        4.1510   57.9110   17.9310 C.ar   24  PHE24      -0.0003
     23  CZ         5.0250   58.7320   18.6350 C.ar   24  PHE24      -0.0000
     24  N          2.6200   62.4710   12.5840 N.am   25  PRO25      -0.2718
     25  CA         2.2260   62.8540   11.2200 C.3    25  PRO25       0.1535
     26  C          2.8840   62.0160   10.1290 C.2    25  PRO25       0.2598
     27  O          2.2290   61.6060    9.1690 O.2    25  PRO25      -0.2715
     28  CB         2.6510   64.3240   11.1260 C.3    25  PRO25       0.0310
     29  CG         2.6390   64.7880   12.5560 C.3    25  PRO25       0.0237
     30  CD         3.2360   63.6130   13.2830 C.3    25  PRO25       0.0939
     31  N          4.1800   61.7660   10.2630 N.am   26  LEU26      -0.1964
     32  CA         4.8650   60.9840    9.2550 C.3    26  LEU26       0.1728
     33  C          5.1040   59.5490    9.7210 C.2    26  LEU26       0.2617
     34  O          6.0560   59.2710   10.4550 O.2    26  LEU26      -0.2715
     35  CB         6.1870   61.6620    8.8700 C.3    26  LEU26       0.0311
     36  CG         6.9940   61.0470    7.7170 C.3    26  LEU26       0.0022
     37  CD1        6.1170   60.8620    6.4880 C.3    26  LEU26       0.0001
     38  CD2        8.1790   61.9500    7.3910 C.3    26  LEU26       0.0001
     39  N          4.2250   58.6470    9.2910 N.am   27  THR27      -0.1937
     40  CA         4.3180   57.2310    9.6380 C.3    27  THR27       0.2028
     41  C          5.3370   56.5370    8.7250 C.2    27  THR27       0.2642
     42  O          5.7820   57.1140    7.7330 O.2    27  THR27      -0.2714
     43  CB         2.9810   56.5100    9.4250 C.3    27  THR27       0.1808
     44  OG1        2.6570   56.5380    8.0300 O.3    27  THR27      -0.2208
     45  CG2        1.8720   57.1680   10.2200 C.3    27  THR27       0.0379
     46  N          5.6940   55.3000    9.0630 N.am   28  LYS28      -0.1977
     47  CA         6.6280   54.5380    8.2420 C.3    28  LYS28       0.1596
     48  C          5.9960   54.2270    6.8710 C.2    28  LYS28       0.2287
     49  O          6.6720   54.2700    5.8480 O.2    28  LYS28      -0.2864
     50  CB         7.0250   53.2300    8.9420 C.3    28  LYS28       0.0298
     51  CG         7.9700   52.3680    8.1060 C.3    28  LYS28       0.0038
     52  CD         8.5470   51.1960    8.8980 C.3    28  LYS28       0.0206
     53  CE         9.5550   50.4120    8.0560 C.3    28  LYS28       0.1093
     54  NZ        10.2490   49.3640    8.8420 N.3    28  LYS28      -0.1314
     55  N         14.1060   69.6340   15.4080 N.3    74  ARG74      -0.1245
     56  CA        13.2440   68.5980   14.8630 C.3    74  ARG74       0.1563
     57  C         13.0540   67.5710   15.9780 C.2    74  ARG74       0.2260
     58  O         11.9790   66.9840   16.1290 O.2    74  ARG74      -0.2867
     59  CB        13.9150   67.9470   13.6540 C.3    74  ARG74       0.0307
     60  CG        12.9570   67.3520   12.6380 C.3    74  ARG74       0.0489
     61  CD        12.1210   66.2200   13.2130 C.3    74  ARG74       0.2205
     62  NE        10.6920   66.5190   13.1670 N.pl3  74  ARG74      -0.0865
     63  CZ         9.7380   65.6750   13.5480 C.cat  74  ARG74       0.5346
     64  NH1       10.0610   64.4710   14.0030 N.pl3  74  ARG74       0.1354
     65  NH2        8.4620   66.0360   13.4830 N.pl3  74  ARG74       0.1354
     66  N         10.4550   68.7220   18.3040 N.3    77  GLU77      -0.1245
     67  CA         9.1090   68.4510   17.7980 C.3    77  GLU77       0.1567
     68  C          8.7590   67.0080   18.1370 C.2    77  GLU77       0.2260
     69  O          7.6830   66.7230   18.6640 O.2    77  GLU77      -0.2867
     70  CB         9.0440   68.6450   16.2740 C.3    77  GLU77       0.0388
     71  CG         8.9990   70.0970   15.8200 C.3    77  GLU77       0.1160
     72  CD         9.2830   70.2620   14.3320 C.2    77  GLU77       0.3649
     73  OE1        8.7720   69.4460   13.5280 O.co2  77  GLU77      -0.2457
     74  OE2       10.0100   71.2150   13.9690 O.co2  77  GLU77      -0.2457
     75  N          5.7290   65.0950   20.2140 N.3    81  GLU81      -0.1245
     76  CA         4.8770   64.0350   19.6860 C.3    81  GLU81       0.1567
     77  C          4.9230   62.7840   20.5670 C.2    81  GLU81       0.2260
     78  O          3.8780   62.2310   20.9390 O.2    81  GLU81      -0.2867
     79  CB         5.3080   63.6830   18.2580 C.3    81  GLU81       0.0388
     80  CG         4.6470   64.5250   17.1770 C.3    81  GLU81       0.1160
     81  CD         5.5200   64.6960   15.9430 C.2    81  GLU81       0.3649
     82  OE1        6.1920   63.7320   15.5340 O.co2  81  GLU81      -0.2457
     83  OE2        5.5250   65.8010   15.3720 O.co2  81  GLU81      -0.2457
     84  N         12.1700   55.4810   15.3610 N.3   115  MET115     -0.1230
     85  CA        11.2860   55.9910   14.3190 C.3   115  MET115      0.1702
     86  C         12.0330   56.6550   13.1530 C.2   115  MET115      0.2592
     87  O         11.6130   56.5620   11.9930 O.2   115  MET115     -0.2718
     88  CB        10.2800   56.9520   14.9500 C.3   115  MET115      0.0401
     89  CG         9.3020   56.2460   15.8780 C.3   115  MET115      0.0596
     90  SD         8.0970   57.3480   16.6250 S.3   115  MET115     -0.1393
     91  CE         6.9050   57.5140   15.2710 C.3   115  MET115      0.0692
     92  N         13.1420   57.3140   13.4640 N.am  116  LEU116     -0.1980
     93  CA        13.9540   57.9560   12.4410 C.3   116  LEU116      0.1596
     94  C         14.3840   56.9070   11.4040 C.2   116  LEU116      0.2287
     95  O         14.6000   57.2240   10.2320 O.2   116  LEU116     -0.2864
     96  CB        15.1950   58.5990   13.0790 C.3   116  LEU116      0.0297
     97  CG        16.1730   59.2250   12.0830 C.3   116  LEU116      0.0022
     98  CD1       15.5650   60.4980   11.5170 C.3   116  LEU116      0.0001
     99  CD2       17.4980   59.5190   12.7720 C.3   116  LEU116      0.0001
    100  N         12.5710   54.7540   10.2200 N.3   118  SER118     -0.1202
    101  CA        11.4650   54.6820    9.2700 C.3   118  SER118      0.2020
    102  C         11.6880   55.6430    8.1080 C.2   118  SER118      0.2618
    103  O         11.2340   55.3910    7.0080 O.2   118  SER118     -0.2717
    104  CB        10.1350   55.0500    9.9430 C.3   118  SER118      0.2103
    105  OG         9.8370   54.1750   11.0010 O.3   118  SER118     -0.2182
    106  N         12.3930   56.7390    8.3640 N.am  119  LEU119     -0.1979
    107  CA        12.6310   57.7430    7.3380 C.3   119  LEU119      0.1596
    108  C         13.9710   57.5760    6.6130 C.2   119  LEU119      0.2287
    109  O         14.3600   58.4440    5.8210 O.2   119  LEU119     -0.2864
    110  CB        12.5730   59.1440    7.9620 C.3   119  LEU119      0.0297
    111  CG        11.5770   59.4350    9.0900 C.3   119  LEU119      0.0022
    112  CD1       11.4550   60.9470    9.2760 C.3   119  LEU119      0.0001
    113  CD2       10.2200   58.8420    8.7680 C.3   119  LEU119      0.0001
    114  N         13.3720   64.4380    5.2240 N.3   127  ILE127     -0.1231
    115  CA        13.3720   65.6050    6.0950 C.3   127  ILE127      0.1692
    116  C         12.1700   66.4790    5.7900 C.2   127  ILE127      0.2593
    117  O         11.4710   66.2690    4.7960 O.2   127  ILE127     -0.2718
    118  CB        14.6460   66.4650    5.9190 C.3   127  ILE127      0.0266
    119  CG1       14.7190   67.0090    4.4870 C.3   127  ILE127      0.0019
    120  CG2       15.8750   65.6450    6.2670 C.3   127  ILE127      0.0020
    121  CD1       15.8540   67.9900    4.2570 C.3   127  ILE127      0.0001
    122  N         11.9310   67.4530    6.6590 N.am  128  SER128     -0.1938
    123  CA        10.8240   68.3820    6.4890 C.3   128  SER128      0.2055
    124  C          9.5540   67.6410    6.0680 C.2   128  SER128      0.2642
    125  O          9.0370   67.8400    4.9660 O.2   128  SER128     -0.2714
    126  CB        11.2040   69.4360    5.4420 C.3   128  SER128      0.2130
    127  OG        10.2030   70.4270    5.3060 O.3   128  SER128     -0.2179
    128  N          9.0730   66.7730    6.9520 N.am  129  GLU129     -0.1976
    129  CA         7.8600   66.0000    6.7090 C.3   129  GLU129      0.1602
    130  C          7.8780   65.1380    5.4390 C.2   129  GLU129      0.2287
    131  O          6.8240   64.7670    4.9290 O.2   129  GLU129     -0.2864
    132  CB         6.6600   66.9440    6.6450 C.3   129  GLU129      0.0415
    133  CG         6.3730   67.7060    7.9290 C.3   129  GLU129      0.1163
    134  CD         5.3750   66.9880    8.8220 C.2   129  GLU129      0.3649
    135  OE1        4.9450   67.5850    9.8340 O.co2 129  GLU129     -0.2457
    136  OE2        5.0190   65.8260    8.5100 O.co2 129  GLU129     -0.2457
@<TRIPOS>BOND
     1   121   119    1
     2   119   118    1
     3   117   116    2
     4   131   130    2
     5   125   124    2
     6   114   115    1
     7   127   126    1
     8   130   129    1
     9   126   123    1
    10   116   115    1
    11   116   122   am
    12   109   108    2
    13    49    48    2
    14   118   115    1
    15   118   120    1
    16   124   123    1
    17   124   128   am
    18    37    36    1
    19   123   122    1
    20   108   107    1
    21   132   129    1
    22   132   133    1
    23   129   128    1
    24    48    47    1
    25   103   102    2
    26   107   110    1
    27   107   106    1
    28    38    36    1
    29    36    35    1
    30    42    41    2
    31   133   134    1
    32   110   111    1
    33    44    43    1
    34    53    54    1
    35    53    52    1
    36    51    52    1
    37    51    50    1
    38   102   106   am
    39   102   101    1
    40    47    50    1
    41    47    46    1
    42   136   134   ar
    43    41    46   am
    44    41    40    1
    45   113   111    1
    46   134   135   ar
    47    35    32    1
    48   111   112    1
    49    27    26    2
    50    32    33    1
    51    32    31    1
    52   101   104    1
    53   101   100    1
    54    39    40    1
    55    39    33   am
    56    43    40    1
    57    43    45    1
    58    33    34    2
    59   104   105    1
    60    26    31   am
    61    26    25    1
    62    95    94    2
    63    28    25    1
    64    28    29    1
    65    25    24    1
    66    94    93    1
    67    98    97    1
    68    87    86    2
    69    97    99    1
    70    97    96    1
    71    16    15    2
    72    93    96    1
    73    93    92    1
    74    29    30    1
    75    24    15   am
    76    24    30    1
    77    60    61    1
    78    60    59    1
    79    15    14    1
    80    86    92   am
    81    86    85    1
    82    62    61    1
    83    62    63    2
    84    12    11    1
    85    65    63    1
    86    73    72   ar
    87    63    64    1
    88    59    56    1
    89    10    11   ar
    90    10     8   ar
    91    74    72   ar
    92    11     9   ar
    93    85    88    1
    94    85    84    1
    95    72    71    1
    96     8     6   ar
    97    14    17    1
    98    14    13    1
    99    17    18    1
   100    56    55    1
   101    56    57    1
   102    88    89    1
   103    91    90    1
   104    83    81   ar
   105    82    81   ar
   106     9     7   ar
   107     4     3    2
   108    71    70    1
   109     6     7   ar
   110     6     5    1
   111    89    90    1
   112     3     2    1
   113    81    80    1
   114    57    58    2
   115    18    20   ar
   116    18    19   ar
   117    70    67    1
   118    20    22   ar
   119    19    21   ar
   120     5     2    1
   121     2     1    1
   122    80    79    1
   123    67    68    1
   124    67    66    1
   125    22    23   ar
   126    21    23   ar
   127    68    69    2
   128    79    76    1
   129    76    75    1
   130    76    77    1
   131    77    78    2
