@<TRIPOS>MOLECULE
tmp/3advB00.pdb
 117 107 0 0 0
SMALL
GASTEIGER

@<TRIPOS>ATOM
      1  N         44.3490   30.8040   48.1920 N.3    55  PHE55      -0.1241
      2  CA        44.0480   31.1210   46.8010 C.3    55  PHE55       0.1605
      3  C         45.3360   31.7460   46.2870 C.2    55  PHE55       0.2264
      4  O         45.3350   32.6880   45.4940 O.2    55  PHE55      -0.2867
      5  CB        42.8780   32.1070   46.6850 C.3    55  PHE55       0.0534
      6  CG        43.0980   33.4130   47.3920 C.ar   55  PHE55      -0.0203
      7  CD1       43.1240   33.4740   48.7800 C.ar   55  PHE55      -0.0042
      8  CD2       43.2540   34.5890   46.6660 C.ar   55  PHE55      -0.0042
      9  CE1       43.3000   34.6890   49.4350 C.ar   55  PHE55      -0.0003
     10  CE2       43.4310   35.8100   47.3130 C.ar   55  PHE55      -0.0003
     11  CZ        43.4530   35.8610   48.7000 C.ar   55  PHE55      -0.0000
     12  N         47.4880   33.3070   42.4230 N.3    58  ILE58      -0.1245
     13  CA        47.6550   34.6320   41.8440 C.3    58  ILE58       0.1561
     14  C         48.7770   35.3890   42.5530 C.2    58  ILE58       0.2260
     15  O         49.7270   35.8510   41.9260 O.2    58  ILE58      -0.2867
     16  CB        46.3530   35.4570   41.9840 C.3    58  ILE58       0.0252
     17  CG1       45.9730   35.5940   43.4610 C.3    58  ILE58       0.0019
     18  CG2       45.2210   34.7610   41.2680 C.3    58  ILE58       0.0019
     19  CD1       44.7880   36.4730   43.7140 C.3    58  ILE58       0.0001
     20  N         44.5280   42.3700   44.3620 N.3    69  ILE69      -0.1245
     21  CA        43.1550   41.8960   44.2620 C.3    69  ILE69       0.1561
     22  C         42.6970   41.9930   42.8070 C.2    69  ILE69       0.2260
     23  O         42.1260   41.0480   42.2640 O.2    69  ILE69      -0.2867
     24  CB        42.2010   42.7180   45.1700 C.3    69  ILE69       0.0252
     25  CG1       42.4700   42.3810   46.6400 C.3    69  ILE69       0.0019
     26  CG2       40.7490   42.4250   44.8130 C.3    69  ILE69       0.0019
     27  CD1       41.4640   42.9710   47.6050 C.3    69  ILE69       0.0001
     28  N         44.2530   39.4360   40.8100 N.3    72  GLY72      -0.1210
     29  CA        43.6700   38.1400   41.1090 C.3    72  GLY72       0.1956
     30  C         42.4180   37.8920   40.2880 C.2    72  GLY72       0.2612
     31  O         42.1880   36.7910   39.7860 O.2    72  GLY72      -0.2717
     32  N         41.5990   38.9270   40.1570 N.am   73  CYS73      -0.1970
     33  CA        40.3710   38.8380   39.3860 C.3    73  CYS73       0.1712
     34  C         40.7520   38.4560   37.9580 C.2    73  CYS73       0.2296
     35  O         40.0490   37.6970   37.2930 O.2    73  CYS73      -0.2864
     36  CB        39.6550   40.1910   39.4030 C.3    73  CYS73       0.0983
     37  SG        37.9740   40.1770   38.7480 S.3    73  CYS73      -0.0798
     38  N         41.5470   34.7910   37.5600 N.3    76  ARG76      -0.1245
     39  CA        40.3070   34.0270   37.5470 C.3    76  ARG76       0.1563
     40  C         39.5340   34.1760   36.2430 C.2    76  ARG76       0.2260
     41  O         38.9740   33.1990   35.7360 O.2    76  ARG76      -0.2867
     42  CB        39.4250   34.4220   38.7330 C.3    76  ARG76       0.0307
     43  CG        38.0820   33.7040   38.7720 C.3    76  ARG76       0.0489
     44  CD        38.2090   32.1980   38.4970 C.3    76  ARG76       0.2205
     45  NE        36.8930   31.5970   38.2850 N.pl3  76  ARG76      -0.0865
     46  CZ        36.6690   30.4880   37.5830 C.cat  76  ARG76       0.5346
     47  NH1       37.6740   29.8380   37.0140 N.pl3  76  ARG76       0.1354
     48  NH2       35.4310   30.0400   37.4330 N.pl3  76  ARG76       0.1354
     49  N         29.0610   35.5240   37.0150 N.3   118  LEU118     -0.1245
     50  CA        29.5630   36.1540   38.2270 C.3   118  LEU118      0.1561
     51  C         28.3760   36.4820   39.1490 C.2   118  LEU118      0.2260
     52  O         28.4890   36.4480   40.3750 O.2   118  LEU118     -0.2867
     53  CB        30.3250   37.4300   37.8630 C.3   118  LEU118      0.0270
     54  CG        30.9630   38.2090   39.0150 C.3   118  LEU118      0.0019
     55  CD1       32.0760   37.3810   39.6480 C.3   118  LEU118      0.0001
     56  CD2       31.5070   39.5320   38.4920 C.3   118  LEU118      0.0001
     57  N         27.5010   33.9610   41.6390 N.3   121  LEU121     -0.1245
     58  CA        28.3290   33.9010   42.8350 C.3   121  LEU121      0.1561
     59  C         28.2010   35.1180   43.7540 C.2   121  LEU121      0.2260
     60  O         28.9510   35.2410   44.7260 O.2   121  LEU121     -0.2867
     61  CB        29.7940   33.7260   42.4330 C.3   121  LEU121      0.0270
     62  CG        30.3430   32.3480   42.0390 C.3   121  LEU121      0.0019
     63  CD1       29.2950   31.5010   41.3750 C.3   121  LEU121      0.0001
     64  CD2       31.5310   32.5590   41.1190 C.3   121  LEU121      0.0001
     65  N         30.6880   38.6600   47.1440 N.3   127  VAL127     -0.1231
     66  CA        30.9660   37.6800   46.1000 C.3   127  VAL127      0.1692
     67  C         31.8090   36.4960   46.5760 C.2   127  VAL127      0.2592
     68  O         32.7260   36.6400   47.3860 O.2   127  VAL127     -0.2718
     69  CB        31.7010   38.3500   44.9110 C.3   127  VAL127      0.0266
     70  CG1       33.0450   38.8890   45.3710 C.3   127  VAL127      0.0020
     71  CG2       31.8950   37.3560   43.7720 C.3   127  VAL127      0.0020
     72  N         31.4810   35.3250   46.0400 N.am  128  LEU128     -0.1966
     73  CA        32.1590   34.0720   46.3430 C.3   128  LEU128      0.1728
     74  C         33.4340   33.9810   45.5090 C.2   128  LEU128      0.2616
     75  O         33.3740   34.0470   44.2800 O.2   128  LEU128     -0.2715
     76  CB        31.2340   32.9080   45.9790 C.3   128  LEU128      0.0311
     77  CG        30.7610   31.9280   47.0500 C.3   128  LEU128      0.0022
     78  CD1       30.6260   32.6200   48.3960 C.3   128  LEU128      0.0001
     79  CD2       29.4380   31.3150   46.6020 C.3   128  LEU128      0.0001
     80  N         34.5800   33.8270   46.1680 N.am  129  ILE129     -0.1963
     81  CA        35.8550   33.7170   45.4590 C.3   129  ILE129      0.1727
     82  C         36.4950   32.3400   45.6270 C.2   129  ILE129      0.2616
     83  O         36.0160   31.4990   46.3880 O.2   129  ILE129     -0.2715
     84  CB        36.8850   34.7600   45.9370 C.3   129  ILE129      0.0290
     85  CG1       37.2870   34.4630   47.3870 C.3   129  ILE129      0.0022
     86  CG2       36.3170   36.1600   45.7860 C.3   129  ILE129      0.0023
     87  CD1       38.6200   35.0460   47.7870 C.3   129  ILE129      0.0001
     88  N         37.5950   32.1390   44.9090 N.am  130  SER130     -0.1950
     89  CA        38.3490   30.8910   44.9190 C.3   130  SER130      0.1924
     90  C         37.5300   29.6240   45.1400 C.2   130  SER130      0.2314
     91  O         37.5920   29.0030   46.1980 O.2   130  SER130     -0.2863
     92  CB        39.4920   30.9630   45.9410 C.3   130  SER130      0.2116
     93  OG        39.0360   31.4070   47.2040 O.3   130  SER130     -0.2180
     94  N         34.4100   37.5210   49.4850 N.3   136  MET136     -0.1245
     95  CA        34.9650   38.8520   49.6750 C.3   136  MET136      0.1570
     96  C         33.7700   39.7880   49.7680 C.2   136  MET136      0.2261
     97  O         32.9120   39.7920   48.8920 O.2   136  MET136     -0.2867
     98  CB        35.8800   39.2110   48.5030 C.3   136  MET136      0.0387
     99  CG        36.7250   40.4530   48.7190 C.3   136  MET136      0.0595
    100  SD        37.9950   40.6100   47.4440 S.3   136  MET136     -0.1393
    101  CE        39.3380   39.7310   48.2210 C.3   136  MET136      0.0692
    102  N         35.3670   45.8010   48.9930 N.3   141  LEU141     -0.1245
    103  CA        35.6970   46.0270   47.5920 C.3   141  LEU141      0.1561
    104  C         35.5880   47.4950   47.1930 C.2   141  LEU141      0.2260
    105  O         36.3210   47.9660   46.3210 O.2   141  LEU141     -0.2867
    106  CB        34.8130   45.1550   46.6930 C.3   141  LEU141      0.0270
    107  CG        35.2350   43.6810   46.6990 C.3   141  LEU141      0.0019
    108  CD1       34.1900   42.8200   46.0150 C.3   141  LEU141      0.0001
    109  CD2       36.5800   43.5430   46.0100 C.3   141  LEU141      0.0001
    110  N         34.1380   46.5380   40.9500 N.3   152  MET152     -0.1245
    111  CA        33.1210   45.5240   41.2180 C.3   152  MET152      0.1570
    112  C         31.7310   46.0670   41.5050 C.2   152  MET152      0.2261
    113  O         30.7320   45.3960   41.2450 O.2   152  MET152     -0.2867
    114  CB        33.5620   44.6400   42.3850 C.3   152  MET152      0.0387
    115  CG        34.7370   43.7580   42.0570 C.3   152  MET152      0.0595
    116  SD        34.3420   42.7620   40.6300 S.3   152  MET152     -0.1393
    117  CE        33.2330   41.5850   41.3550 C.3   152  MET152      0.0692
@<TRIPOS>BOND
     1    41    40    2
     2    40    39    1
     3    47    46    1
     4    49    50    1
     5    35    34    2
     6    48    46    1
     7    39    38    1
     8    39    42    1
     9    46    45    2
    10    53    50    1
    11    53    54    1
    12    34    33    1
    13    50    51    1
    14    45    44    1
    15    56    54    1
    16    44    43    1
    17    42    43    1
    18    37    36    1
    19    54    55    1
    20    51    52    2
    21    33    36    1
    22    33    32    1
    23    31    30    2
    24    32    30   am
    25    30    29    1
    26   116   117    1
    27   116   115    1
    28    28    29    1
    29   110   111    1
    30    64    62    1
    31   111   112    1
    32   111   114    1
    33   113   112    2
    34    18    16    1
    35    63    62    1
    36    57    58    1
    37    13    16    1
    38    13    12    1
    39    13    14    1
    40    15    14    2
    41    16    17    1
    42    62    61    1
    43   115   114    1
    44    23    22    2
    45    61    58    1
    46    22    21    1
    47    58    59    1
    48    17    19    1
    49    59    60    2
    50    71    69    1
    51    21    20    1
    52    21    24    1
    53    75    74    2
    54    26    24    1
    55    88    89    1
    56    88    82   am
    57    69    70    1
    58    69    66    1
    59    89    90    1
    60    89    92    1
    61    90    91    2
    62    24    25    1
    63    81    82    1
    64    81    84    1
    65    81    80    1
    66     4     3    2
    67    74    80   am
    68    74    73    1
    69    82    83    2
    70    86    84    1
    71    84    85    1
    72    92    93    1
    73    76    73    1
    74    76    77    1
    75   109   107    1
    76   108   107    1
    77    72    73    1
    78    72    67   am
    79    66    67    1
    80    66    65    1
    81     3     2    1
    82   105   104    2
    83    67    68    2
    84    79    77    1
    85    25    27    1
    86     8    10   ar
    87     8     6   ar
    88     5     2    1
    89     5     6    1
    90   106   107    1
    91   106   103    1
    92     2     1    1
    93    77    78    1
    94   104   103    1
    95    10    11   ar
    96    85    87    1
    97     6     7   ar
    98   100   101    1
    99   100    99    1
   100   103   102    1
   101    98    99    1
   102    98    95    1
   103    11     9   ar
   104     7     9   ar
   105    97    96    2
   106    94    95    1
   107    95    96    1
