@<TRIPOS>MOLECULE
tmp/3advA00.pdb
 164 154 0 0 0
SMALL
GASTEIGER

@<TRIPOS>ATOM
      1  N         22.2730   73.0870    9.5900 N.3    67  ILE67      -0.1245
      2  CA        21.6510   71.7720    9.4980 C.3    67  ILE67       0.1561
      3  C         21.5120   71.1180   10.8660 C.2    67  ILE67       0.2260
      4  O         20.4870   70.5110   11.1650 O.2    67  ILE67      -0.2867
      5  CB        22.4710   70.8340    8.5930 C.3    67  ILE67       0.0252
      6  CG1       22.4000   71.3200    7.1460 C.3    67  ILE67       0.0019
      7  CG2       21.9620   69.4100    8.7180 C.3    67  ILE67       0.0019
      8  CD1       23.2570   70.5210    6.2000 C.3    67  ILE67       0.0001
      9  N         17.9580   69.9250   12.6850 N.3    71  CYS71      -0.1221
     10  CA        17.7440   68.5980   13.2370 C.3    71  CYS71       0.1808
     11  C         17.5550   68.6520   14.7590 C.2    71  CYS71       0.2601
     12  O         16.8440   67.8270   15.3370 O.2    71  CYS71      -0.2717
     13  CB        18.9280   67.7040   12.8620 C.3    71  CYS71       0.0970
     14  SG        19.6400   66.7740   14.2240 S.3    71  CYS71      -0.0800
     15  N         18.1820   69.6350   15.3990 N.am   72  GLN72      -0.1979
     16  CA        18.0800   69.8030   16.8450 C.3    72  GLN72       0.1601
     17  C         16.6550   70.1690   17.2460 C.2    72  GLN72       0.2287
     18  O         16.1120   69.6230   18.2050 O.2    72  GLN72      -0.2864
     19  CB        19.0440   70.8960   17.3270 C.3    72  GLN72       0.0394
     20  CG        19.0860   71.0710   18.8440 C.3    72  GLN72       0.0908
     21  CD        20.0190   72.1920   19.2980 C.2    72  GLN72       0.2608
     22  OE1       21.2190   72.1770   19.0160 O.2    72  GLN72      -0.2717
     23  NE2       19.4640   73.1670   20.0120 N.am   72  GLN72      -0.0878
     24  N         14.1060   69.6340   15.4080 N.3    74  ARG74      -0.1231
     25  CA        13.2440   68.5980   14.8630 C.3    74  ARG74       0.1694
     26  C         13.0540   67.5710   15.9780 C.2    74  ARG74       0.2592
     27  O         11.9790   66.9840   16.1290 O.2    74  ARG74      -0.2718
     28  CB        13.9150   67.9470   13.6540 C.3    74  ARG74       0.0321
     29  CG        12.9570   67.3520   12.6380 C.3    74  ARG74       0.0489
     30  CD        12.1210   66.2200   13.2130 C.3    74  ARG74       0.2205
     31  NE        10.6920   66.5190   13.1670 N.pl3  74  ARG74      -0.0865
     32  CZ         9.7380   65.6750   13.5480 C.cat  74  ARG74       0.5346
     33  NH1       10.0610   64.4710   14.0030 N.pl3  74  ARG74       0.1354
     34  NH2        8.4620   66.0360   13.4830 N.pl3  74  ARG74       0.1354
     35  N         14.1100   67.3630   16.7600 N.am   75  SER75      -0.1952
     36  CA        14.0620   66.4240   17.8760 C.3    75  SER75       0.1924
     37  C         13.0630   66.9490   18.8880 C.2    75  SER75       0.2314
     38  O         12.3030   66.1850   19.4770 O.2    75  SER75      -0.2863
     39  CB        15.4320   66.2970   18.5470 C.3    75  SER75       0.2116
     40  OG        16.3700   65.6640   17.7010 O.3    75  SER75      -0.2180
     41  N         14.8440   59.7410   23.4600 N.3   109  HIS109     -0.1241
     42  CA        15.8410   59.5710   22.4110 C.3   109  HIS109      0.1621
     43  C         15.8950   58.1750   21.7980 C.2   109  HIS109      0.2264
     44  O         16.1520   58.0310   20.6080 O.2   109  HIS109     -0.2867
     45  CB        17.2160   60.0030   22.9030 C.3   109  HIS109      0.0745
     46  CG        17.3970   61.4840   22.8920 C.ar  109  HIS109      0.0817
     47  ND1       16.9590   62.2930   23.9170 N.ar  109  HIS109     -0.2268
     48  CD2       17.8740   62.3150   21.9360 C.ar  109  HIS109      0.1154
     49  CE1       17.1560   63.5580   23.5920 C.ar  109  HIS109      0.1986
     50  NE2       17.7090   63.5980   22.3940 N.ar  109  HIS109     -0.2212
     51  N         13.1580   58.2940   19.3180 N.3   112  ILE112     -0.1231
     52  CA        13.4850   59.1520   18.1970 C.3   112  ILE112      0.1692
     53  C         14.3300   58.4100   17.1680 C.2   112  ILE112      0.2592
     54  O         14.0940   58.5190   15.9670 O.2   112  ILE112     -0.2718
     55  CB        14.2460   60.4050   18.6840 C.3   112  ILE112      0.0266
     56  CG1       13.2650   61.3740   19.3510 C.3   112  ILE112      0.0019
     57  CG2       14.9900   61.0610   17.5200 C.3   112  ILE112      0.0020
     58  CD1       13.9420   62.5920   20.0010 C.3   112  ILE112      0.0001
     59  N         15.3120   57.6410   17.6260 N.am  113  TYR113     -0.1976
     60  CA        16.1660   56.9160   16.6820 C.3   113  TYR113      0.1639
     61  C         15.4750   55.6890   16.1080 C.2   113  TYR113      0.2290
     62  O         15.7660   55.2790   14.9900 O.2   113  TYR113     -0.2864
     63  CB        17.5010   56.5760   17.3520 C.3   113  TYR113      0.0560
     64  CG        18.2200   57.8380   17.7650 C.ar  113  TYR113     -0.0198
     65  CD1       18.8500   57.9410   19.0060 C.ar  113  TYR113     -0.0009
     66  CD2       18.2080   58.9630   16.9340 C.ar  113  TYR113     -0.0009
     67  CE1       19.4420   59.1400   19.4080 C.ar  113  TYR113      0.0417
     68  CE2       18.7910   60.1540   17.3240 C.ar  113  TYR113      0.0417
     69  CZ        19.4060   60.2410   18.5570 C.ar  113  TYR113      0.1957
     70  OH        20.0010   61.4260   18.9270 O.3   113  TYR113     -0.2866
     71  N         13.1420   57.3140   13.4640 N.3   116  LEU116     -0.1245
     72  CA        13.9540   57.9560   12.4410 C.3   116  LEU116      0.1561
     73  C         14.3840   56.9070   11.4040 C.2   116  LEU116      0.2260
     74  O         14.6000   57.2240   10.2320 O.2   116  LEU116     -0.2867
     75  CB        15.1950   58.5990   13.0790 C.3   116  LEU116      0.0270
     76  CG        16.1730   59.2250   12.0830 C.3   116  LEU116      0.0019
     77  CD1       15.5650   60.4980   11.5170 C.3   116  LEU116      0.0001
     78  CD2       17.4980   59.5190   12.7720 C.3   116  LEU116      0.0001
     79  N         12.3930   56.7390    8.3640 N.3   119  LEU119     -0.1245
     80  CA        12.6310   57.7430    7.3380 C.3   119  LEU119      0.1561
     81  C         13.9710   57.5760    6.6130 C.2   119  LEU119      0.2260
     82  O         14.3600   58.4440    5.8210 O.2   119  LEU119     -0.2867
     83  CB        12.5730   59.1440    7.9620 C.3   119  LEU119      0.0270
     84  CG        11.5770   59.4350    9.0900 C.3   119  LEU119      0.0019
     85  CD1       11.4550   60.9470    9.2760 C.3   119  LEU119      0.0001
     86  CD2       10.2200   58.8420    8.7680 C.3   119  LEU119      0.0001
     87  N         18.1260   60.2930    4.3430 N.3   125  VAL125     -0.1231
     88  CA        17.0210   60.4260    5.2700 C.3   125  VAL125      0.1692
     89  C         16.0140   61.4940    4.8490 C.2   125  VAL125      0.2592
     90  O         16.3810   62.5850    4.4020 O.2   125  VAL125     -0.2718
     91  CB        17.5560   60.7600    6.6790 C.3   125  VAL125      0.0266
     92  CG1       18.3120   62.0910    6.6480 C.3   125  VAL125      0.0020
     93  CG2       16.4220   60.8100    7.6790 C.3   125  VAL125      0.0020
     94  N         14.7380   61.1660    4.9930 N.am  126  LEU126     -0.1966
     95  CA        13.6880   62.1040    4.6620 C.3   126  LEU126      0.1728
     96  C         13.7540   63.2450    5.6650 C.2   126  LEU126      0.2616
     97  O         14.1550   63.0480    6.8180 O.2   126  LEU126     -0.2715
     98  CB        12.3170   61.4270    4.7460 C.3   126  LEU126      0.0311
     99  CG        11.9170   60.5800    3.5400 C.3   126  LEU126      0.0022
    100  CD1       10.5480   59.9640    3.7910 C.3   126  LEU126      0.0001
    101  CD2       11.8930   61.4470    2.2890 C.3   126  LEU126      0.0001
    102  N         13.3720   64.4380    5.2240 N.am  127  ILE127     -0.1977
    103  CA        13.3720   65.6050    6.0950 C.3   127  ILE127      0.1596
    104  C         12.1700   66.4790    5.7900 C.2   127  ILE127      0.2287
    105  O         11.4710   66.2690    4.7960 O.2   127  ILE127     -0.2864
    106  CB        14.6460   66.4650    5.9190 C.3   127  ILE127      0.0276
    107  CG1       14.7190   67.0090    4.4870 C.3   127  ILE127      0.0022
    108  CG2       15.8750   65.6450    6.2670 C.3   127  ILE127      0.0022
    109  CD1       15.8540   67.9900    4.2570 C.3   127  ILE127      0.0001
    110  N         17.8090   64.1720    2.4010 N.3   134  MET134     -0.1245
    111  CA        19.2070   64.5610    2.4990 C.3   134  MET134      0.1570
    112  C         20.0260   63.2800    2.4360 C.2   134  MET134      0.2261
    113  O         19.8010   62.3550    3.2240 O.2   134  MET134     -0.2867
    114  CB        19.4430   65.3020    3.8170 C.3   134  MET134      0.0387
    115  CG        20.6750   66.1890    3.8280 C.3   134  MET134      0.0595
    116  SD        20.8040   67.1700    5.3460 S.3   134  MET134     -0.1393
    117  CE        19.5780   68.4210    5.0350 C.3   134  MET134      0.0692
    118  N         25.6780   64.5010    4.4350 N.3   139  LEU139     -0.1245
    119  CA        25.7410   64.6080    5.8850 C.3   139  LEU139      0.1561
    120  C         27.0870   64.1770    6.4700 C.2   139  LEU139      0.2260
    121  O         27.4890   64.6580    7.5340 O.2   139  LEU139     -0.2867
    122  CB        24.6330   63.7620    6.5150 C.3   139  LEU139      0.0270
    123  CG        23.2260   64.3550    6.4800 C.3   139  LEU139      0.0019
    124  CD1       22.2140   63.3290    6.9550 C.3   139  LEU139      0.0001
    125  CD2       23.1860   65.5920    7.3640 C.3   139  LEU139      0.0001
    126  N         25.2870   61.7600   12.1730 N.3   150  MET150     -0.1245
    127  CA        24.3190   60.8050   11.6490 C.3   150  MET150      0.1570
    128  C         24.7560   59.3820   11.3150 C.2   150  MET150      0.2261
    129  O         23.9280   58.4740   11.3580 O.2   150  MET150     -0.2867
    130  CB        23.6000   61.4220   10.4480 C.3   150  MET150      0.0387
    131  CG        22.8440   62.7060   10.7950 C.3   150  MET150      0.0595
    132  SD        21.6040   62.5030   12.1210 S.3   150  MET150     -0.1393
    133  CE        20.4100   61.4460   11.2810 C.3   150  MET150      0.0692
    134  N         23.3250   56.5500   13.3050 N.3   153  LYS153     -0.1245
    135  CA        21.8940   56.4160   13.0500 C.3   153  LYS153      0.1561
    136  C         21.6690   55.5720   11.7990 C.2   153  LYS153      0.2260
    137  O         20.8460   54.6560   11.7980 O.2   153  LYS153     -0.2867
    138  CB        21.2440   57.7890   12.8360 C.3   153  LYS153      0.0271
    139  CG        21.7510   58.9120   13.7340 C.3   153  LYS153      0.0035
    140  CD        21.5750   58.6000   15.1880 C.3   153  LYS153      0.0206
    141  CE        21.7300   59.8590   16.0270 C.3   153  LYS153      0.1093
    142  NZ        23.0040   60.5880   15.7870 N.3   153  LYS153     -0.1314
    143  N         25.8060   60.0340   20.8130 N.3   235  HIS235     -0.1241
    144  CA        25.2300   61.3370   20.5030 C.3   235  HIS235      0.1621
    145  C         25.5090   62.3260   21.6290 C.2   235  HIS235      0.2264
    146  O         25.9920   63.4300   21.3930 O.2   235  HIS235     -0.2867
    147  CB        23.7170   61.2250   20.2810 C.3   235  HIS235      0.0745
    148  CG        23.0530   62.5340   19.9770 C.ar  235  HIS235      0.0817
    149  ND1       23.0790   63.1130   18.7250 N.ar  235  HIS235     -0.2268
    150  CD2       22.3650   63.3890   20.7710 C.ar  235  HIS235      0.1154
    151  CE1       22.4360   64.2660   18.7610 C.ar  235  HIS235      0.1986
    152  NE2       21.9930   64.4570   19.9920 N.ar  235  HIS235     -0.2212
    153  N         19.2590   65.8350   28.3890 N.3   259  TYR259     -0.1241
    154  CA        20.6560   65.3910   28.3840 C.3   259  TYR259      0.1605
    155  C         21.2510   65.3360   29.7950 C.2   259  TYR259      0.2264
    156  O         22.1900   64.5830   30.0540 O.2   259  TYR259     -0.2867
    157  CB        21.5120   66.3330   27.5300 C.3   259  TYR259      0.0534
    158  CG        21.1820   66.3600   26.0510 C.ar  259  TYR259     -0.0201
    159  CD1       21.7540   67.3170   25.2180 C.ar  259  TYR259     -0.0009
    160  CD2       20.3020   65.4340   25.4840 C.ar  259  TYR259     -0.0009
    161  CE1       21.4590   67.3590   23.8560 C.ar  259  TYR259      0.0417
    162  CE2       20.0000   65.4660   24.1210 C.ar  259  TYR259      0.0417
    163  CZ        20.5820   66.4330   23.3150 C.ar  259  TYR259      0.1957
    164  OH        20.2840   66.4940   21.9730 O.3   259  TYR259     -0.2866
@<TRIPOS>BOND
     1   101    99    1
     2   110   111    1
     3   112   111    1
     4   112   113    2
     5   111   114    1
     6    99   100    1
     7    99    98    1
     8   114   115    1
     9   115   116    1
    10   109   107    1
    11    87    88    1
    12    90    89    2
    13   118   119    1
    14   107   106    1
    15    95    98    1
    16    95    94    1
    17    95    96    1
    18   105   104    2
    19    89    94   am
    20    89    88    1
    21   117   116    1
    22   102    96   am
    23   102   103    1
    24    88    91    1
    25    96    97    2
    26   104   103    1
    27    82    81    2
    28   119   120    1
    29   119   122    1
    30   106   103    1
    31   106   108    1
    32     8     6    1
    33   120   121    2
    34   123   122    1
    35   123   124    1
    36   123   125    1
    37    81    80    1
    38    92    91    1
    39    91    93    1
    40     6     5    1
    41    80    83    1
    42    80    79    1
    43    83    84    1
    44     5     7    1
    45     5     2    1
    46    86    84    1
    47    84    85    1
    48     2     1    1
    49     2     3    1
    50    74    73    2
    51   130   131    1
    52   130   127    1
    53   131   132    1
    54     3     4    2
    55   133   132    1
    56   128   129    2
    57   128   127    1
    58    73    72    1
    59    77    76    1
    60   127   126    1
    61   137   136    2
    62   136   135    1
    63    76    78    1
    64    76    75    1
    65    72    75    1
    66    72    71    1
    67    29    30    1
    68    29    28    1
    69     9    10    1
    70   138   135    1
    71   138   139    1
    72    13    10    1
    73    13    14    1
    74   135   134    1
    75    31    30    1
    76    31    32    2
    77    10    11    1
    78    34    32    1
    79    32    33    1
    80    28    25    1
    81   139   140    1
    82    11    12    2
    83    11    15   am
    84    25    24    1
    85    25    26    1
    86    62    61    2
    87   140   141    1
    88    15    16    1
    89   142   141    1
    90    54    53    2
    91    26    27    2
    92    26    35   am
    93    61    60    1
    94    60    63    1
    95    60    59    1
    96    35    36    1
    97    16    17    1
    98    16    19    1
    99    66    68   ar
   100    66    64   ar
   101    53    59   am
   102    53    52    1
   103    17    18    2
   104    68    69   ar
   105    19    20    1
   106    63    64    1
   107    57    55    1
   108    40    39    1
   109    64    65   ar
   110    36    39    1
   111    36    37    1
   112    52    55    1
   113    52    51    1
   114    69    70    1
   115    69    67   ar
   116    55    56    1
   117   149   151   ar
   118   149   148   ar
   119   151   152   ar
   120    20    21    1
   121    37    38    2
   122    65    67   ar
   123    22    21    2
   124    21    23   am
   125    56    58    1
   126   148   147    1
   127   148   150   ar
   128   152   150   ar
   129   147   144    1
   130   144   143    1
   131   144   145    1
   132    44    43    2
   133   146   145    2
   134    43    42    1
   135    48    50   ar
   136    48    46   ar
   137   164   163    1
   138    50    49   ar
   139    42    45    1
   140    42    41    1
   141    46    45    1
   142    46    47   ar
   143   163   161   ar
   144   163   162   ar
   145    49    47   ar
   146   161   159   ar
   147   162   160   ar
   148   159   158   ar
   149   160   158   ar
   150   158   157    1
   151   157   154    1
   152   154   153    1
   153   154   155    1
   154   155   156    2
