@<TRIPOS>MOLECULE
tmp/3adxB00.pdb
 203 191 0 0 0
SMALL
GASTEIGER

@<TRIPOS>ATOM
      1  N         31.6340   25.2220   39.5950 N.3    22  LEU22      -0.1245
      2  CA        30.7260   25.8270   40.5620 C.3    22  LEU22       0.1561
      3  C         29.4280   26.3230   39.9370 C.2    22  LEU22       0.2260
      4  O         29.3930   27.3980   39.3420 O.2    22  LEU22      -0.2867
      5  CB        31.4370   26.9780   41.2700 C.3    22  LEU22       0.0270
      6  CG        30.6790   27.7230   42.3680 C.3    22  LEU22       0.0019
      7  CD1       30.1150   26.7580   43.3990 C.3    22  LEU22       0.0001
      8  CD2       31.6380   28.7050   43.0110 C.3    22  LEU22       0.0001
      9  N         41.8440   39.1170   54.6370 N.3    46  LEU46      -0.1245
     10  CA        42.3630   38.8030   53.3090 C.3    46  LEU46       0.1561
     11  C         43.7280   38.1380   53.4660 C.2    46  LEU46       0.2260
     12  O         43.9700   37.0410   52.9530 O.2    46  LEU46      -0.2867
     13  CB        42.5110   40.0780   52.4790 C.3    46  LEU46       0.0270
     14  CG        43.2780   39.9480   51.1590 C.3    46  LEU46       0.0019
     15  CD1       42.6290   38.9070   50.2630 C.3    46  LEU46       0.0001
     16  CD2       43.3030   41.2880   50.4760 C.3    46  LEU46       0.0001
     17  N         45.1600   30.9700   47.2490 N.3    55  PHE55      -0.1241
     18  CA        44.5150   31.3470   45.9980 C.3    55  PHE55       0.1605
     19  C         44.9940   30.6860   44.7070 C.2    55  PHE55       0.2264
     20  O         44.1770   30.1170   43.9820 O.2    55  PHE55      -0.2867
     21  CB        44.5490   32.8690   45.8540 C.3    55  PHE55       0.0534
     22  CG        43.6280   33.5870   46.8070 C.ar   55  PHE55      -0.0203
     23  CD1       43.3910   34.9540   46.6700 C.ar   55  PHE55      -0.0042
     24  CD2       42.9820   32.8940   47.8300 C.ar   55  PHE55      -0.0042
     25  CE1       42.5230   35.6190   47.5370 C.ar   55  PHE55      -0.0003
     26  CE2       42.1140   33.5460   48.7010 C.ar   55  PHE55      -0.0003
     27  CZ        41.8830   34.9110   48.5540 C.ar   55  PHE55      -0.0000
     28  N         46.6770   43.6520   43.9530 N.3    62  ARG62      -0.1231
     29  CA        46.7160   42.1940   44.0080 C.3    62  ARG62       0.1694
     30  C         45.3220   41.6010   43.8230 C.2    62  ARG62       0.2591
     31  O         45.1710   40.5230   43.2430 O.2    62  ARG62      -0.2718
     32  CB        47.3050   41.7160   45.3390 C.3    62  ARG62       0.0321
     33  CG        48.7900   41.9990   45.5110 C.3    62  ARG62       0.0489
     34  CD        49.3630   41.1910   46.6710 C.3    62  ARG62       0.2205
     35  NE        48.8150   41.6010   47.9630 N.pl3  62  ARG62      -0.0865
     36  CZ        48.6760   40.7850   49.0030 C.cat  62  ARG62       0.5346
     37  NH1       49.0380   39.5120   48.9020 N.pl3  62  ARG62       0.1354
     38  NH2       48.1780   41.2380   50.1450 N.pl3  62  ARG62       0.1354
     39  N         44.3050   42.3000   44.3220 N.am   63  ILE63      -0.1980
     40  CA        42.9290   41.8300   44.1840 C.3    63  ILE63       0.1595
     41  C         42.5000   41.9190   42.7200 C.2    63  ILE63       0.2287
     42  O         42.0820   40.9230   42.1290 O.2    63  ILE63      -0.2864
     43  CB        41.9420   42.6540   45.0470 C.3    63  ILE63       0.0276
     44  CG1       42.1940   42.3900   46.5340 C.3    63  ILE63       0.0022
     45  CG2       40.5030   42.2780   44.6940 C.3    63  ILE63       0.0022
     46  CD1       41.2130   43.0920   47.4550 C.3    63  ILE63       0.0001
     47  N         43.9540   39.2220   40.8990 N.3    66  GLY66      -0.1210
     48  CA        43.3090   37.9350   41.1000 C.3    66  GLY66       0.1956
     49  C         42.0860   37.7570   40.2190 C.2    66  GLY66       0.2612
     50  O         41.7710   36.6460   39.7890 O.2    66  GLY66      -0.2717
     51  N         41.3920   38.8590   39.9600 N.am   67  CYS67      -0.1970
     52  CA        40.2100   38.8510   39.1140 C.3    67  CYS67       0.1712
     53  C         40.6050   38.3620   37.7270 C.2    67  CYS67       0.2296
     54  O         39.9080   37.5600   37.1150 O.2    67  CYS67      -0.2864
     55  CB        39.6370   40.2650   39.0150 C.3    67  CYS67       0.0983
     56  SG        38.3380   40.4680   37.7740 S.3    67  CYS67      -0.0798
     57  N         41.3500   34.5240   37.4420 N.3    70  ARG70      -0.1231
     58  CA        40.1060   33.7750   37.3870 C.3    70  ARG70       0.1694
     59  C         39.3830   33.9910   36.0580 C.2    70  ARG70       0.2592
     60  O         38.7660   33.0660   35.5210 O.2    70  ARG70      -0.2718
     61  CB        39.1940   34.1680   38.5510 C.3    70  ARG70       0.0321
     62  CG        37.8270   33.4970   38.5130 C.3    70  ARG70       0.0489
     63  CD        37.9200   31.9810   38.3180 C.3    70  ARG70       0.2205
     64  NE        36.5960   31.3870   38.1710 N.pl3  70  ARG70      -0.0865
     65  CZ        36.2960   30.4050   37.3260 C.cat  70  ARG70       0.5346
     66  NH1       37.2310   29.8900   36.5390 N.pl3  70  ARG70       0.1354
     67  NH2       35.0520   29.9470   37.2550 N.pl3  70  ARG70       0.1354
     68  N         39.4600   35.2050   35.5230 N.am   71  SER71      -0.1952
     69  CA        38.8030   35.5000   34.2540 C.3    71  SER71       0.1924
     70  C         39.3770   34.6160   33.1610 C.2    71  SER71       0.2314
     71  O         38.6390   34.0300   32.3610 O.2    71  SER71      -0.2863
     72  CB        38.9810   36.9710   33.8880 C.3    71  SER71       0.2116
     73  OG        38.1580   37.7910   34.7020 O.3    71  SER71      -0.2180
     74  N         38.0570   31.1770   33.4890 N.3    74  ALA74      -0.1245
     75  CA        36.6700   31.1880   33.0420 C.3    74  ALA74       0.1562
     76  C         36.5520   31.1080   31.5250 C.2    74  ALA74       0.2260
     77  O         35.6970   30.3950   31.0000 O.2    74  ALA74      -0.2867
     78  CB        35.9660   32.4550   33.5610 C.3    74  ALA74       0.0290
     79  N         34.3510   28.4590   29.3750 N.3    78  ILE78      -0.1245
     80  CA        33.3540   28.9420   28.4150 C.3    78  ILE78       0.1561
     81  C         33.6360   28.3920   27.0210 C.2    78  ILE78       0.2260
     82  O         32.7300   27.9490   26.3180 O.2    78  ILE78      -0.2867
     83  CB        33.3570   30.4920   28.3500 C.3    78  ILE78       0.0252
     84  CG1       32.9070   31.0660   29.6980 C.3    78  ILE78       0.0019
     85  CG2       32.4510   30.9670   27.2120 C.3    78  ILE78       0.0019
     86  CD1       33.0940   32.5690   29.8280 C.3    78  ILE78       0.0001
     87  N         30.9090   36.0410   31.3710 N.3   108  ILE108     -0.1231
     88  CA        31.5830   36.1280   32.6550 C.3   108  ILE108      0.1692
     89  C         30.7110   36.8650   33.6750 C.2   108  ILE108      0.2592
     90  O         30.5360   36.3950   34.8010 O.2   108  ILE108     -0.2718
     91  CB        32.9540   36.8300   32.5090 C.3   108  ILE108      0.0266
     92  CG1       33.9700   35.8420   31.9100 C.3   108  ILE108      0.0019
     93  CG2       33.4280   37.3650   33.8440 C.3   108  ILE108      0.0020
     94  CD1       35.3310   36.4420   31.6480 C.3   108  ILE108      0.0001
     95  N         30.1400   38.0090   33.3000 N.am  109  TYR109     -0.1976
     96  CA        29.3150   38.7300   34.2680 C.3   109  TYR109      0.1639
     97  C         28.0230   38.0120   34.5610 C.2   109  TYR109      0.2290
     98  O         27.5380   38.0300   35.6960 O.2   109  TYR109     -0.2864
     99  CB        29.0560   40.1630   33.8050 C.3   109  TYR109      0.0560
    100  CG        30.3390   40.9440   33.7960 C.ar  109  TYR109     -0.0198
    101  CD1       31.2680   40.7800   34.8230 C.ar  109  TYR109     -0.0009
    102  CD2       30.6640   41.7880   32.7420 C.ar  109  TYR109     -0.0009
    103  CE1       32.4960   41.4250   34.7960 C.ar  109  TYR109      0.0417
    104  CE2       31.8930   42.4450   32.7050 C.ar  109  TYR109      0.0417
    105  CZ        32.8030   42.2550   33.7320 C.ar  109  TYR109      0.1957
    106  OH        34.0320   42.8720   33.6930 O.3   109  TYR109     -0.2866
    107  N         27.5450   34.7720   34.6640 N.3   111  MET111     -0.1230
    108  CA        27.8030   33.6880   35.6020 C.3   111  MET111      0.1702
    109  C         28.2840   34.2020   36.9520 C.2   111  MET111      0.2592
    110  O         28.0710   33.5650   37.9820 O.2   111  MET111     -0.2718
    111  CB        28.8060   32.7130   34.9900 C.3   111  MET111      0.0401
    112  CG        28.2880   32.1310   33.6860 C.3   111  MET111      0.0596
    113  SD        29.3200   30.8360   33.0490 S.3   111  MET111     -0.1393
    114  CE        28.7570   29.4580   34.0900 C.3   111  MET111      0.0692
    115  N         28.9200   35.3680   36.9410 N.am  112  LEU112     -0.1980
    116  CA        29.4100   35.9740   38.1630 C.3   112  LEU112      0.1596
    117  C         28.2080   36.2460   39.0800 C.2   112  LEU112      0.2287
    118  O         28.3090   36.1630   40.3040 O.2   112  LEU112     -0.2864
    119  CB        30.1350   37.2730   37.8230 C.3   112  LEU112      0.0297
    120  CG        30.8360   38.0240   38.9490 C.3   112  LEU112      0.0022
    121  CD1       31.9480   37.1660   39.5270 C.3   112  LEU112      0.0001
    122  CD2       31.3970   39.3280   38.3970 C.3   112  LEU112      0.0001
    123  N         27.2120   33.6270   41.5630 N.3   115  LEU115     -0.1245
    124  CA        28.0340   33.5320   42.7620 C.3   115  LEU115      0.1561
    125  C         28.0020   34.7770   43.6370 C.2   115  LEU115      0.2260
    126  O         28.8080   34.9080   44.5580 O.2   115  LEU115     -0.2867
    127  CB        29.4800   33.2140   42.3790 C.3   115  LEU115      0.0270
    128  CG        29.7790   31.7610   42.0110 C.3   115  LEU115      0.0019
    129  CD1       28.8470   31.2630   40.9170 C.3   115  LEU115      0.0001
    130  CD2       31.2140   31.6680   41.5580 C.3   115  LEU115      0.0001
    131  N         30.6520   38.1790   47.1420 N.3   121  VAL121     -0.1231
    132  CA        30.8420   37.1950   46.0820 C.3   121  VAL121      0.1692
    133  C         31.7200   36.0130   46.4990 C.2   121  VAL121      0.2592
    134  O         32.7110   36.1750   47.2100 O.2   121  VAL121     -0.2718
    135  CB        31.4620   37.8630   44.8250 C.3   121  VAL121      0.0266
    136  CG1       32.8210   38.4710   45.1640 C.3   121  VAL121      0.0020
    137  CG2       31.5990   36.8440   43.7060 C.3   121  VAL121      0.0020
    138  N         31.3380   34.8180   46.0640 N.am  122  LEU122     -0.1966
    139  CA        32.0970   33.6120   46.3650 C.3   122  LEU122      0.1728
    140  C         33.3590   33.5960   45.5130 C.2   122  LEU122      0.2616
    141  O         33.3090   33.9410   44.3350 O.2   122  LEU122     -0.2715
    142  CB        31.2630   32.3750   46.0360 C.3   122  LEU122      0.0311
    143  CG        30.0350   32.1110   46.9040 C.3   122  LEU122      0.0022
    144  CD1       29.2530   30.9430   46.3290 C.3   122  LEU122      0.0001
    145  CD2       30.4760   31.8060   48.3330 C.3   122  LEU122      0.0001
    146  N         34.4840   33.1950   46.0990 N.am  123  ILE123     -0.1963
    147  CA        35.7480   33.1310   45.3650 C.3   123  ILE123      0.1727
    148  C         36.4080   31.7520   45.5060 C.2   123  ILE123      0.2617
    149  O         36.0750   30.9810   46.4080 O.2   123  ILE123     -0.2715
    150  CB        36.7500   34.2190   45.8510 C.3   123  ILE123      0.0290
    151  CG1       37.2450   33.8990   47.2640 C.3   123  ILE123      0.0022
    152  CG2       36.0720   35.5860   45.8800 C.3   123  ILE123      0.0023
    153  CD1       38.2850   34.8770   47.7670 C.3   123  ILE123      0.0001
    154  N         37.3390   31.4560   44.6040 N.am  124  SER124     -0.1936
    155  CA        38.0640   30.1850   44.5870 C.3   124  SER124      0.2055
    156  C         37.2080   28.9610   44.8960 C.2   124  SER124      0.2642
    157  O         37.2810   28.3920   45.9880 O.2   124  SER124     -0.2714
    158  CB        39.2570   30.2370   45.5480 C.3   124  SER124      0.2130
    159  OG        38.8590   30.6470   46.8400 O.3   124  SER124     -0.2179
    160  N         36.3990   28.5610   43.9220 N.am  125  GLU125     -0.1976
    161  CA        35.5360   27.3950   44.0630 C.3   125  GLU125      0.1602
    162  C         34.5800   27.4990   45.2300 C.2   125  GLU125      0.2287
    163  O         34.0400   26.4900   45.6840 O.2   125  GLU125     -0.2864
    164  CB        36.3790   26.1320   44.2260 C.3   125  GLU125      0.0415
    165  CG        36.8610   25.5180   42.9250 C.3   125  GLU125      0.1163
    166  CD        35.7760   24.7230   42.2180 C.2   125  GLU125      0.3649
    167  OE1       35.1250   23.8790   42.8770 O.co2 125  GLU125     -0.2457
    168  OE2       35.5830   24.9370   41.0000 O.co2 125  GLU125     -0.2457
    169  N         34.2920   37.0800   49.4720 N.3   130  MET130     -0.1245
    170  CA        34.8210   38.4260   49.6250 C.3   130  MET130      0.1570
    171  C         33.6660   39.4090   49.7200 C.2   130  MET130      0.2261
    172  O         32.7560   39.4100   48.8950 O.2   130  MET130     -0.2867
    173  CB        35.7420   38.8020   48.4690 C.3   130  MET130      0.0387
    174  CG        36.5790   40.0350   48.7820 C.3   130  MET130      0.0595
    175  SD        37.7720   40.4080   47.5170 S.3   130  MET130     -0.1393
    176  CE        39.0080   39.1320   47.8270 C.3   130  MET130      0.0692
    177  N         35.4800   45.1930   48.9940 N.3   135  LEU135     -0.1245
    178  CA        35.8430   45.5060   47.6140 C.3   135  LEU135      0.1561
    179  C         35.5660   46.9830   47.3560 C.2   135  LEU135      0.2260
    180  O         36.3910   47.6940   46.7850 O.2   135  LEU135     -0.2867
    181  CB        35.0270   44.6460   46.6370 C.3   135  LEU135      0.0270
    182  CG        35.4170   43.1690   46.5270 C.3   135  LEU135      0.0019
    183  CD1       34.3080   42.3850   45.8410 C.3   135  LEU135      0.0001
    184  CD2       36.7230   43.0520   45.7530 C.3   135  LEU135      0.0001
    185  N         35.3170   48.6980   40.7940 N.3   145  PHE145     -0.1227
    186  CA        35.4420   47.9940   39.5240 C.3   145  PHE145      0.1736
    187  C         34.5930   46.7290   39.6000 C.2   145  PHE145      0.2595
    188  O         34.4130   46.0220   38.6060 O.2   145  PHE145     -0.2718
    189  CB        36.9240   47.6840   39.2060 C.3   145  PHE145      0.0547
    190  CG        37.4410   46.3780   39.7710 C.ar  145  PHE145     -0.0202
    191  CD1       37.1650   45.1660   39.1380 C.ar  145  PHE145     -0.0042
    192  CD2       38.2470   46.3660   40.9080 C.ar  145  PHE145     -0.0042
    193  CE1       37.6860   43.9650   39.6260 C.ar  145  PHE145     -0.0003
    194  CE2       38.7720   45.1690   41.4030 C.ar  145  PHE145     -0.0003
    195  CZ        38.4900   43.9680   40.7590 C.ar  145  PHE145     -0.0000
    196  N         34.0630   46.4610   40.7910 N.am  146  MET146     -0.1979
    197  CA        33.2110   45.2970   41.0130 C.3   146  MET146      0.1605
    198  C         31.7830   45.7320   41.3130 C.2   146  MET146      0.2287
    199  O         30.8320   45.0120   41.0090 O.2   146  MET146     -0.2864
    200  CB        33.7360   44.4520   42.1780 C.3   146  MET146      0.0413
    201  CG        34.9650   43.6200   41.8560 C.3   146  MET146      0.0598
    202  SD        34.6390   42.3810   40.5770 S.3   146  MET146     -0.1393
    203  CE        33.6930   41.1790   41.5100 C.3   146  MET146      0.0692
@<TRIPOS>BOND
     1    82    81    2
     2    81    80    1
     3    85    83    1
     4    83    80    1
     5    83    84    1
     6    80    79    1
     7    84    86    1
     8    77    76    2
     9    87    88    1
    10    76    75    1
    11    94    92    1
    12    92    91    1
    13    71    70    2
    14    91    88    1
    15    91    93    1
    16    88    89    1
    17   104   102   ar
    18   104   105   ar
    19   102   100   ar
    20    75    74    1
    21    75    78    1
    22   113   112    1
    23   113   114    1
    24    70    69    1
    25    95    89   am
    26    95    96    1
    27    89    90    2
    28   112   111    1
    29   106   105    1
    30   105   103   ar
    31   100    99    1
    32   100   101   ar
    33    99    96    1
    34    72    69    1
    35    72    73    1
    36    69    68    1
    37    96    97    1
    38    97    98    2
    39   107   108    1
    40   103   101   ar
    41   111   108    1
    42    60    59    2
    43    68    59   am
    44   108   109    1
    45    59    58    1
    46    66    65    1
    47   115   109   am
    48   115   116    1
    49   109   110    2
    50    54    53    2
    51    67    65    1
    52    65    64    2
    53    58    57    1
    54    58    61    1
    55    53    52    1
    56    56    55    1
    57   119   116    1
    58   119   120    1
    59   116   117    1
    60    64    63    1
    61    63    62    1
    62   122   120    1
    63    62    61    1
    64   188   187    2
    65   120   121    1
    66    55    52    1
    67   117   118    2
    68    52    51    1
    69   191   193   ar
    70   191   190   ar
    71   189   186    1
    72   189   190    1
    73     4     3    2
    74   186   187    1
    75   186   185    1
    76     1     2    1
    77   187   196   am
    78   193   195   ar
    79   190   192   ar
    80    50    49    2
    81     3     2    1
    82    51    49   am
    83    49    48    1
    84     2     5    1
    85   202   203    1
    86   202   201    1
    87   195   194   ar
    88   196   197    1
    89    47    48    1
    90   192   194   ar
    91   129   128    1
    92   168   166   ar
    93   199   198    2
    94   197   198    1
    95   197   200    1
    96     5     6    1
    97   130   128    1
    98   123   124    1
    99   201   200    1
   100   128   127    1
   101    42    41    2
   102   166   167   ar
   103   166   165    1
   104     6     8    1
   105     6     7    1
   106   127   124    1
   107    41    40    1
   108   124   125    1
   109   165   164    1
   110    31    30    2
   111   125   126    2
   112   137   135    1
   113    30    29    1
   114    30    39   am
   115   160   161    1
   116   160   156   am
   117    28    29    1
   118    20    19    2
   119    29    32    1
   120   161   164    1
   121   161   162    1
   122    40    39    1
   123    40    43    1
   124   141   140    2
   125   155   154    1
   126   155   156    1
   127   155   158    1
   128   154   148   am
   129    45    43    1
   130    19    18    1
   131   135   136    1
   132   135   132    1
   133   156   157    2
   134    43    44    1
   135   162   163    2
   136    32    33    1
   137   147   148    1
   138   147   150    1
   139   147   146    1
   140   148   149    2
   141    33    34    1
   142   140   146   am
   143   140   139    1
   144   158   159    1
   145   184   182    1
   146   183   182    1
   147   150   152    1
   148   150   151    1
   149    21    18    1
   150    21    22    1
   151    18    17    1
   152   142   139    1
   153   142   143    1
   154   138   139    1
   155   138   133   am
   156   132   133    1
   157   132   131    1
   158   144   143    1
   159   133   134    2
   160   182   181    1
   161    44    46    1
   162   181   178    1
   163    23    22   ar
   164    23    25   ar
   165    34    35    1
   166   180   179    2
   167    22    24   ar
   168   143   145    1
   169   151   153    1
   170   179   178    1
   171   175   176    1
   172   175   174    1
   173    25    27   ar
   174   178   177    1
   175    24    26   ar
   176    35    36    2
   177   173   174    1
   178   173   170    1
   179    27    26   ar
   180   172   171    2
   181    37    36    1
   182    36    38    1
   183   169   170    1
   184   170   171    1
   185    15    14    1
   186    16    14    1
   187    14    13    1
   188    13    10    1
   189    12    11    2
   190    10    11    1
   191    10     9    1
