@<TRIPOS>MOLECULE
tmp/3ae0B00.pdb
 224 211 0 0 0
SMALL
GASTEIGER

@<TRIPOS>ATOM
      1  N         25.4340   -6.1120   17.0120 N.3    18  HIS18      -0.1226
      2  CA        25.3740   -5.7830   15.5990 C.3    18  HIS18       0.1752
      3  C         24.2370   -6.4500   14.8440 C.2    18  HIS18       0.2597
      4  O         23.8630   -6.0250   13.7520 O.2    18  HIS18      -0.2718
      5  CB        26.7280   -6.0250   14.9350 C.3    18  HIS18       0.0759
      6  CG        27.8240   -5.1610   15.4810 C.ar   18  HIS18       0.0818
      7  ND1       28.0240   -3.8620   15.0630 N.ar   18  HIS18      -0.2268
      8  CD2       28.7740   -5.4090   16.4130 C.ar   18  HIS18       0.1154
      9  CE1       29.0600   -3.3540   15.7050 C.ar   18  HIS18       0.1986
     10  NE2       29.5300   -4.2690   16.5330 N.ar   18  HIS18      -0.2212
     11  N         23.6750   -7.4930   15.4350 N.am   19  SER19      -0.1938
     12  CA        22.7100   -8.2970   14.7090 C.3    19  SER19       0.2055
     13  C         21.3360   -8.1780   15.3430 C.2    19  SER19       0.2643
     14  O         20.9430   -9.0290   16.1410 O.2    19  SER19      -0.2714
     15  CB        23.1660   -9.7560   14.6780 C.3    19  SER19       0.2130
     16  OG        22.5010  -10.4850   13.6690 O.3    19  SER19      -0.2179
     17  N         20.6200   -7.1140   14.9880 N.am   20  LYS20      -0.1963
     18  CA        19.2500   -6.9280   15.4480 C.3    20  LYS20       0.1728
     19  C         18.3850   -8.0990   14.9820 C.2    20  LYS20       0.2617
     20  O         17.6010   -8.6360   15.7690 O.2    20  LYS20      -0.2715
     21  CB        18.6860   -5.5740   14.9930 C.3    20  LYS20       0.0311
     22  CG        17.2880   -5.2160   15.5460 C.3    20  LYS20       0.0038
     23  CD        17.3000   -4.5100   16.9030 C.3    20  LYS20       0.0206
     24  CE        17.2210   -2.9860   16.7590 C.3    20  LYS20       0.1093
     25  NZ        17.0730   -2.2480   18.0590 N.3    20  LYS20      -0.1314
     26  N         18.5730   -8.5290   13.7340 N.am   21  SER21      -0.1936
     27  CA        17.7910   -9.6270   13.1560 C.3    21  SER21       0.2055
     28  C         17.9820  -11.0010   13.7990 C.2    21  SER21       0.2643
     29  O         16.9930  -11.6780   14.0830 O.2    21  SER21      -0.2714
     30  CB        18.0380   -9.7500   11.6460 C.3    21  SER21       0.2130
     31  OG        17.7530   -8.5360   10.9680 O.3    21  SER21      -0.2179
     32  N         19.2310  -11.4070   14.0320 N.am   22  PHE22      -0.1973
     33  CA        19.5770  -12.8240   14.2320 C.3    22  PHE22       0.1639
     34  C         20.0590  -13.2500   15.6140 C.2    22  PHE22       0.2290
     35  O         20.1370  -14.4360   15.9110 O.2    22  PHE22      -0.2864
     36  CB        20.6040  -13.2480   13.1820 C.3    22  PHE22       0.0560
     37  CG        20.1180  -13.0590   11.7790 C.ar   22  PHE22      -0.0200
     38  CD1       19.0280  -13.7850   11.3050 C.ar   22  PHE22      -0.0042
     39  CD2       20.7210  -12.1320   10.9410 C.ar   22  PHE22      -0.0042
     40  CE1       18.5470  -13.6000   10.0210 C.ar   22  PHE22      -0.0003
     41  CE2       20.2490  -11.9440    9.6430 C.ar   22  PHE22      -0.0003
     42  CZ        19.1620  -12.6860    9.1860 C.ar   22  PHE22      -0.0000
     43  N         28.5070  -20.3350   17.0910 N.3    37  VAL37      -0.1245
     44  CA        27.8940  -19.3260   16.2180 C.3    37  VAL37       0.1561
     45  C         28.4130  -17.9350   16.5840 C.2    37  VAL37       0.2260
     46  O         28.8560  -17.1910   15.7080 O.2    37  VAL37      -0.2867
     47  CB        26.3420  -19.3820   16.2790 C.3    37  VAL37       0.0252
     48  CG1       25.7300  -18.1070   15.7350 C.3    37  VAL37       0.0019
     49  CG2       25.8180  -20.6010   15.5070 C.3    37  VAL37       0.0019
     50  N         30.2900  -15.4960   14.0990 N.3    41  TYR41      -0.1241
     51  CA        29.7360  -14.1720   13.8690 C.3    41  TYR41       0.1605
     52  C         30.7810  -13.1140   14.2230 C.2    41  TYR41       0.2264
     53  O         31.0800  -12.2090   13.4340 O.2    41  TYR41      -0.2867
     54  CB        28.4540  -13.9270   14.6660 C.3    41  TYR41       0.0534
     55  CG        27.8040  -12.6120   14.2900 C.ar   41  TYR41      -0.0201
     56  CD1       26.8040  -12.5580   13.3230 C.ar   41  TYR41      -0.0009
     57  CD2       28.2050  -11.4160   14.8790 C.ar   41  TYR41      -0.0009
     58  CE1       26.2160  -11.3430   12.9500 C.ar   41  TYR41       0.0417
     59  CE2       27.6170  -10.1950   14.5230 C.ar   41  TYR41       0.0417
     60  CZ        26.6250  -10.1610   13.5520 C.ar   41  TYR41       0.1957
     61  OH        26.0590   -8.9540   13.1800 O.3    41  TYR41      -0.2866
     62  N         32.0330  -10.3630   11.7100 N.3    45  ARG45      -0.1245
     63  CA        31.7160   -8.9650   12.0200 C.3    45  ARG45       0.1563
     64  C         32.9630   -8.0700   12.0370 C.2    45  ARG45       0.2260
     65  O         32.9730   -6.9690   11.4790 O.2    45  ARG45      -0.2867
     66  CB        30.9340   -8.9040   13.3390 C.3    45  ARG45       0.0307
     67  CG        30.5580   -7.5220   13.8250 C.3    45  ARG45       0.0489
     68  CD        29.9760   -6.6640   12.7170 C.3    45  ARG45       0.2205
     69  NE        28.5830   -7.0060   12.4550 N.pl3  45  ARG45      -0.0865
     70  CZ        27.8730   -6.4970   11.4550 C.cat  45  ARG45       0.5346
     71  NH1       28.4460   -5.6470   10.6150 N.pl3  45  ARG45       0.1354
     72  NH2       26.6010   -6.8410   11.2970 N.pl3  45  ARG45       0.1354
     73  N         30.0200  -12.9170    0.2800 N.3   133  VAL133     -0.1231
     74  CA        29.7370  -12.1920    1.5150 C.3   133  VAL133      0.1692
     75  C         28.9190  -13.0340    2.4810 C.2   133  VAL133      0.2591
     76  O         28.9770  -12.8350    3.6910 O.2   133  VAL133     -0.2718
     77  CB        29.0310  -10.8520    1.1770 C.3   133  VAL133      0.0266
     78  CG1       28.1250  -10.4070    2.2760 C.3   133  VAL133      0.0020
     79  CG2       30.0710   -9.8050    0.9540 C.3   133  VAL133      0.0020
     80  N         28.1530  -13.9820    1.9660 N.am  134  ALA134     -0.1980
     81  CA        27.1570  -14.6300    2.8090 C.3   134  ALA134      0.1597
     82  C         27.1770  -16.1410    2.6060 C.2   134  ALA134      0.2287
     83  O         26.9690  -16.9160    3.5350 O.2   134  ALA134     -0.2864
     84  CB        25.8170  -14.0820    2.4660 C.3   134  ALA134      0.0319
     85  N         29.9010  -17.5520    4.6670 N.3   137  VAL137     -0.1231
     86  CA        29.4280  -17.7250    6.0410 C.3   137  VAL137      0.1692
     87  C         28.5690  -18.9780    6.2340 C.2   137  VAL137      0.2592
     88  O         28.7430  -19.7010    7.2220 O.2   137  VAL137     -0.2718
     89  CB        28.6250  -16.5050    6.5340 C.3   137  VAL137      0.0266
     90  CG1       28.2650  -16.6780    7.9950 C.3   137  VAL137      0.0020
     91  CG2       29.4430  -15.2310    6.3610 C.3   137  VAL137      0.0020
     92  N         27.6500  -19.2410    5.3070 N.am  138  GLY138     -0.1957
     93  CA        26.8770  -20.4860    5.3560 C.3   138  GLY138      0.1869
     94  C         27.8190  -21.6730    5.4070 C.2   138  GLY138      0.2309
     95  O         27.6440  -22.5930    6.2010 O.2   138  GLY138     -0.2863
     96  N         29.5110  -22.0680    8.6780 N.3   141  LEU141     -0.1245
     97  CA        28.5570  -22.4560    9.7130 C.3   141  LEU141      0.1561
     98  C         28.1240  -23.9190    9.6310 C.2   141  LEU141      0.2260
     99  O         27.6270  -24.4880   10.5950 O.2   141  LEU141     -0.2867
    100  CB        27.3390  -21.5330    9.6680 C.3   141  LEU141      0.0270
    101  CG        27.5600  -20.1860   10.3590 C.3   141  LEU141      0.0019
    102  CD1       26.3380  -19.2790   10.2100 C.3   141  LEU141      0.0001
    103  CD2       27.8860  -20.4020   11.8400 C.3   141  LEU141      0.0001
    104  N         26.1910  -26.5120   12.5180 N.3   145  LEU145     -0.1245
    105  CA        24.7290  -26.6850   12.5100 C.3   145  LEU145      0.1561
    106  C         24.2840  -28.0390   11.9590 C.2   145  LEU145      0.2260
    107  O         23.0980  -28.3820   11.9760 O.2   145  LEU145     -0.2867
    108  CB        24.0560  -25.5590   11.7240 C.3   145  LEU145      0.0270
    109  CG        24.3730  -24.1030   12.1020 C.3   145  LEU145      0.0019
    110  CD1       23.7540  -23.0680   11.1340 C.3   145  LEU145      0.0001
    111  CD2       23.9740  -23.7960   13.5450 C.3   145  LEU145      0.0001
    112  N         23.3630  -24.6430    2.9020 N.3   157  ALA157     -0.1245
    113  CA        23.7950  -23.5640    3.7920 C.3   157  ALA157      0.1562
    114  C         24.2740  -22.3730    2.9690 C.2   157  ALA157      0.2260
    115  O         24.0620  -21.2180    3.3340 O.2   157  ALA157     -0.2867
    116  CB        24.9210  -24.0300    4.7100 C.3   157  ALA157      0.0290
    117  N         21.2150  -20.7320    1.4090 N.3   160  LEU160     -0.1231
    118  CA        20.4060  -19.9740    2.3630 C.3   160  LEU160      0.1693
    119  C         21.0730  -18.6290    2.6210 C.2   160  LEU160      0.2592
    120  O         20.4300  -17.5910    2.5510 O.2   160  LEU160     -0.2718
    121  CB        20.2300  -20.7590    3.6600 C.3   160  LEU160      0.0284
    122  CG        19.4970  -20.2390    4.8960 C.3   160  LEU160      0.0019
    123  CD1       18.0640  -19.8150    4.6060 C.3   160  LEU160      0.0001
    124  CD2       19.5150  -21.3570    5.9130 C.3   160  LEU160      0.0001
    125  N         22.3790  -18.6610    2.8760 N.am  161  GLY161     -0.1957
    126  CA        23.1960  -17.4630    3.0410 C.3   161  GLY161      0.1869
    127  C         23.0380  -16.4620    1.9230 C.2   161  GLY161      0.2309
    128  O         22.7920  -15.2870    2.1840 O.2   161  GLY161     -0.2863
    129  N         19.5370  -14.8540    1.9500 N.3   164  LEU164     -0.1231
    130  CA        19.5220  -13.8520    3.0100 C.3   164  LEU164      0.1693
    131  C         20.2620  -12.5710    2.5960 C.2   164  LEU164      0.2591
    132  O         19.8350  -11.4570    2.9200 O.2   164  LEU164     -0.2718
    133  CB        20.1210  -14.4500    4.2830 C.3   164  LEU164      0.0284
    134  CG        19.2340  -15.1350    5.3360 C.3   164  LEU164      0.0019
    135  CD1       17.9090  -15.6350    4.8020 C.3   164  LEU164      0.0001
    136  CD2       19.9830  -16.2530    6.0640 C.3   164  LEU164      0.0001
    137  N         21.3460  -12.7010    1.8400 N.am  165  GLN165     -0.1979
    138  CA        22.0940  -11.5110    1.4340 C.3   165  GLN165      0.1601
    139  C         21.2630  -10.7120    0.4470 C.2   165  GLN165      0.2287
    140  O         21.2050   -9.4890    0.5130 O.2   165  GLN165     -0.2864
    141  CB        23.4530  -11.8560    0.8160 C.3   165  GLN165      0.0394
    142  CG        24.3290  -10.6500    0.4550 C.3   165  GLN165      0.0908
    143  CD        24.4290   -9.6360    1.5820 C.2   165  GLN165      0.2608
    144  OE1       25.2260   -9.7900    2.4960 O.2   165  GLN165     -0.2717
    145  NE2       23.6270   -8.5840    1.5200 N.am  165  GLN165     -0.0878
    146  N         18.7490   -8.8420    2.4140 N.3   168  ASN168     -0.1240
    147  CA        19.5530   -7.7280    2.9370 C.3   168  ASN168      0.1653
    148  C         19.6970   -6.6100    1.9060 C.2   168  ASN168      0.2266
    149  O         19.5200   -5.4350    2.2300 O.2   168  ASN168     -0.2867
    150  CB        20.9250   -8.2260    3.4300 C.3   168  ASN168      0.1155
    151  CG        21.7540   -7.1410    4.1180 C.2   168  ASN168      0.2627
    152  OD1       22.3770   -6.2900    3.4720 O.2   168  ASN168     -0.2716
    153  ND2       21.8220   -7.2110    5.4350 N.am  168  ASN168     -0.0877
    154  N         16.3000   -4.8390    1.6050 N.3   171  ARG171     -0.1245
    155  CA        16.0330   -3.9300    2.7170 C.3   171  ARG171      0.1563
    156  C         16.8610   -2.6450    2.6550 C.2   171  ARG171      0.2260
    157  O         16.3870   -1.5870    3.0260 O.2   171  ARG171     -0.2867
    158  CB        16.3290   -4.6390    4.0470 C.3   171  ARG171      0.0307
    159  CG        15.8620   -3.8770    5.2870 C.3   171  ARG171      0.0489
    160  CD        16.5330   -4.3390    6.5860 C.3   171  ARG171      0.2205
    161  NE        17.9810   -4.4610    6.4470 N.pl3 171  ARG171     -0.0865
    162  CZ        18.7700   -5.1130    7.2990 C.cat 171  ARG171      0.5346
    163  NH1       18.2650   -5.6950    8.3840 N.pl3 171  ARG171      0.1354
    164  NH2       20.0760   -5.1910    7.0590 N.pl3 171  ARG171      0.1354
    165  N         20.0730  -30.2020    8.1700 N.3   233  PHE233     -0.1241
    166  CA        20.6360  -29.7280    9.4270 C.3   233  PHE233      0.1605
    167  C         20.2040  -30.5840   10.6170 C.2   233  PHE233      0.2264
    168  O         19.1790  -31.2670   10.5710 O.2   233  PHE233     -0.2867
    169  CB        20.2580  -28.2640    9.6370 C.3   233  PHE233      0.0534
    170  CG        20.7770  -27.3560    8.5550 C.ar  233  PHE233     -0.0203
    171  CD1       22.1350  -27.0840    8.4510 C.ar  233  PHE233     -0.0042
    172  CD2       19.9190  -26.8000    7.6340 C.ar  233  PHE233     -0.0042
    173  CE1       22.6230  -26.2570    7.4580 C.ar  233  PHE233     -0.0003
    174  CE2       20.3970  -25.9700    6.6360 C.ar  233  PHE233     -0.0003
    175  CZ        21.7460  -25.6910    6.5450 C.ar  233  PHE233     -0.0000
    176  N         15.6390  -23.1430   14.4820 N.3   240  ILE240     -0.1231
    177  CA        16.3370  -21.8740   14.6530 C.3   240  ILE240      0.1692
    178  C         16.7010  -21.3740   13.2660 C.2   240  ILE240      0.2591
    179  O         16.5840  -20.1760   12.9810 O.2   240  ILE240     -0.2718
    180  CB        17.6080  -22.0240   15.5280 C.3   240  ILE240      0.0266
    181  CG1       17.2720  -22.0850   17.0180 C.3   240  ILE240      0.0019
    182  CG2       18.5080  -20.8190   15.3800 C.3   240  ILE240      0.0020
    183  CD1       16.5620  -23.3380   17.4750 C.3   240  ILE240      0.0001
    184  N         17.1170  -22.2970   12.4030 N.am  241  ILE241     -0.1980
    185  CA        17.4920  -21.9490   11.0370 C.3   241  ILE241      0.1595
    186  C         16.2530  -21.4320   10.3210 C.2   241  ILE241      0.2287
    187  O         16.2730  -20.3810    9.6790 O.2   241  ILE241     -0.2864
    188  CB        18.1170  -23.1430   10.3000 C.3   241  ILE241      0.0276
    189  CG1       19.5140  -23.3890   10.8510 C.3   241  ILE241      0.0022
    190  CG2       18.2090  -22.8850    8.8080 C.3   241  ILE241      0.0022
    191  CD1       20.1910  -24.5950   10.2480 C.3   241  ILE241      0.0001
    192  N         15.4090  -17.8920   11.6060 N.3   244  ALA244     -0.1231
    193  CA        16.2770  -16.8610   11.0480 C.3   244  ALA244      0.1694
    194  C         15.8790  -16.5360    9.6160 C.2   244  ALA244      0.2591
    195  O         15.8560  -15.3640    9.2100 O.2   244  ALA244     -0.2718
    196  CB        17.7190  -17.3130   11.0860 C.3   244  ALA244      0.0304
    197  N         15.5780  -17.5890    8.8620 N.am  245  ALA245     -0.1980
    198  CA        15.1110  -17.4710    7.4810 C.3   245  ALA245      0.1597
    199  C         13.7530  -16.7720    7.4040 C.2   245  ALA245      0.2287
    200  O         13.5480  -15.8730    6.5830 O.2   245  ALA245     -0.2864
    201  CB        15.0480  -18.8550    6.8160 C.3   245  ALA245      0.0319
    202  N         13.8650  -13.0520    8.0670 N.3   248  TYR248     -0.1241
    203  CA        14.2650  -12.3470    6.8760 C.3   248  TYR248      0.1605
    204  C         13.2010  -12.3030    5.7890 C.2   248  TYR248      0.2264
    205  O         13.1310  -11.3020    5.0880 O.2   248  TYR248     -0.2867
    206  CB        15.6160  -12.8280    6.3650 C.3   248  TYR248      0.0534
    207  CG        16.7140  -11.8210    6.6080 C.ar  248  TYR248     -0.0201
    208  CD1       16.7910  -11.1160    7.8050 C.ar  248  TYR248     -0.0009
    209  CD2       17.6800  -11.5780    5.6400 C.ar  248  TYR248     -0.0009
    210  CE1       17.7850  -10.1820    8.0140 C.ar  248  TYR248      0.0417
    211  CE2       18.6870  -10.6570    5.8460 C.ar  248  TYR248      0.0417
    212  CZ        18.7330   -9.9700    7.0330 C.ar  248  TYR248      0.1957
    213  OH        19.7470   -9.0660    7.2230 O.3   248  TYR248     -0.2866
    214  N         15.0100    2.2540    7.4460 N.3   265  ARG265     -0.1245
    215  CA        15.4650    0.8810    7.6090 C.3   265  ARG265      0.1563
    216  C         14.3560    0.1520    8.3610 C.2   265  ARG265      0.2260
    217  O         14.1580    0.4050    9.5410 O.2   265  ARG265     -0.2867
    218  CB        16.7780    0.8390    8.3960 C.3   265  ARG265      0.0307
    219  CG        17.5140   -0.5080    8.3180 C.3   265  ARG265      0.0489
    220  CD        18.6570   -0.5460    9.3290 C.3   265  ARG265      0.2205
    221  NE        19.7160   -1.5000    9.0060 N.pl3 265  ARG265     -0.0865
    222  CZ        19.9250   -2.6350    9.6680 C.cat 265  ARG265      0.5346
    223  NH1       19.1260   -2.9740   10.6750 N.pl3 265  ARG265      0.1354
    224  NH2       20.9320   -3.4360    9.3260 N.pl3 265  ARG265      0.1354
@<TRIPOS>BOND
     1    73    74    1
     2   139   140    2
     3   139   138    1
     4   142   141    1
     5   142   143    1
     6   141   138    1
     7    79    77    1
     8    77    74    1
     9    77    78    1
    10   117   118    1
    11   138   137    1
    12    74    75    1
    13   145   143   am
    14   143   144    2
    15   154   155    1
    16   137   131   am
    17   148   149    2
    18   148   147    1
    19   127   128    2
    20   127   126    1
    21   129   130    1
    22    80    75   am
    23    80    81    1
    24   118   119    1
    25   118   121    1
    26   146   147    1
    27    84    81    1
    28    75    76    2
    29   120   119    2
    30   131   132    2
    31   131   130    1
    32    82    81    1
    33    82    83    2
    34   119   125   am
    35   156   155    1
    36   156   157    2
    37   155   158    1
    38   125   126    1
    39   112   113    1
    40   147   150    1
    41   114   115    2
    42   114   113    1
    43   130   133    1
    44   150   151    1
    45   152   151    2
    46   121   122    1
    47   113   116    1
    48   158   159    1
    49   151   153   am
    50   133   134    1
    51   123   122    1
    52    85    86    1
    53   135   134    1
    54   122   124    1
    55   205   204    2
    56   159   160    1
    57    92    93    1
    58    92    87   am
    59   134   136    1
    60    93    94    1
    61    94    95    2
    62   209   211   ar
    63   209   207   ar
    64   204   203    1
    65   211   212   ar
    66    86    87    1
    67    86    89    1
    68    87    88    2
    69    91    89    1
    70   206   207    1
    71   206   203    1
    72   161   160    1
    73   161   162    2
    74    89    90    1
    75   175   174   ar
    76   175   173   ar
    77   200   199    2
    78   207   208   ar
    79   174   172   ar
    80   201   198    1
    81   203   202    1
    82   212   213    1
    83   212   210   ar
    84   164   162    1
    85   162   163    1
    86   199   198    1
    87   214   215    1
    88   173   171   ar
    89   198   197    1
    90   215   216    1
    91   215   218    1
    92   172   170   ar
    93   208   210   ar
    94   165   166    1
    95   219   218    1
    96   219   220    1
    97   216   217    2
    98   171   170   ar
    99   170   169    1
   100    96    97    1
   101   190   188    1
   102   197   194   am
   103   221   220    1
   104   221   222    2
   105    42    41   ar
   106    42    40   ar
   107   195   194    2
   108   224   222    1
   109   166   169    1
   110   166   167    1
   111   194   193    1
   112    98    97    1
   113    98    99    2
   114    41    39   ar
   115   222   223    1
   116   100    97    1
   117   100   101    1
   118   187   186    2
   119    40    38   ar
   120   102   101    1
   121   191   189    1
   122   188   189    1
   123   188   185    1
   124   186   185    1
   125   101   103    1
   126   168   167    2
   127    71    70    1
   128    39    37   ar
   129    31    30    1
   130   185   184    1
   131   193   196    1
   132   193   192    1
   133   110   109    1
   134    72    70    1
   135    38    37   ar
   136    70    69    2
   137    65    64    2
   138    30    27    1
   139    62    63    1
   140   108   109    1
   141   108   105    1
   142    37    36    1
   143   106   107    2
   144   106   105    1
   145    63    64    1
   146    63    66    1
   147   109   111    1
   148   184   178   am
   149    69    68    1
   150   105   104    1
   151    68    67    1
   152    58    56   ar
   153    58    60   ar
   154   179   178    2
   155    27    26    1
   156    27    28    1
   157    61    60    1
   158    36    33    1
   159   178   177    1
   160    56    55   ar
   161    66    67    1
   162    53    52    2
   163    60    59   ar
   164    16    15    1
   165    26    19   am
   166     4     3    2
   167    28    32   am
   168    28    29    2
   169    51    50    1
   170    51    52    1
   171    51    54    1
   172    32    33    1
   173    33    34    1
   174    55    54    1
   175    55    57   ar
   176   176   177    1
   177    59    57   ar
   178   177   180    1
   179    15    12    1
   180    12    13    1
   181    12    11    1
   182     3    11   am
   183     3     2    1
   184     5     6    1
   185     5     2    1
   186    19    18    1
   187    19    20    2
   188    17    13   am
   189    17    18    1
   190    21    18    1
   191    21    22    1
   192     7     6   ar
   193     7     9   ar
   194    13    14    2
   195   182   180    1
   196     6     8   ar
   197    49    47    1
   198   180   181    1
   199    22    23    1
   200     2     1    1
   201    34    35    2
   202     9    10   ar
   203    46    45    2
   204    48    47    1
   205    44    47    1
   206    44    45    1
   207    44    43    1
   208     8    10   ar
   209    24    23    1
   210    24    25    1
   211   181   183    1
