@<TRIPOS>MOLECULE
tmp/3ae4C01.pdb
 106 100 0 0 0
SMALL
GASTEIGER

@<TRIPOS>ATOM
      1  N          5.2950  -28.7320   74.3750 N.3    47  LEU47      -0.1245
      2  CA         3.8960  -28.8590   74.7640 C.3    47  LEU47       0.1561
      3  C          3.3730  -30.2960   74.6980 C.2    47  LEU47       0.2260
      4  O          2.6360  -30.7240   75.5800 O.2    47  LEU47      -0.2867
      5  CB         3.0140  -27.9100   73.9460 C.3    47  LEU47       0.0270
      6  CG         2.5730  -26.5750   74.5610 C.3    47  LEU47       0.0019
      7  CD1        3.6800  -25.8700   75.3370 C.3    47  LEU47       0.0001
      8  CD2        2.0350  -25.6680   73.4710 C.3    47  LEU47       0.0001
      9  N          4.7190  -32.3490   77.5320 N.3    50  GLY50      -0.1210
     10  CA         3.9470  -32.1570   78.7570 C.3    50  GLY50       0.1956
     11  C          2.6470  -32.9440   78.7730 C.2    50  GLY50       0.2611
     12  O          2.2950  -33.5470   79.7860 O.2    50  GLY50      -0.2717
     13  N          1.9360  -32.9310   77.6480 N.am   51  VAL51      -0.1979
     14  CA         0.6800  -33.6630   77.5040 C.3    51  VAL51       0.1595
     15  C          0.9310  -35.1800   77.6150 C.2    51  VAL51       0.2287
     16  O          0.1090  -35.9290   78.1540 O.2    51  VAL51      -0.2864
     17  CB        -0.0330  -33.3010   76.1730 C.3    51  VAL51       0.0276
     18  CG1       -1.3070  -34.1080   75.9860 C.3    51  VAL51       0.0022
     19  CG2       -0.3670  -31.8280   76.1370 C.3    51  VAL51       0.0022
     20  N          1.7650  -35.8590   81.3890 N.3    54  PHE54      -0.1241
     21  CA         0.5420  -35.7850   82.1900 C.3    54  PHE54       0.1605
     22  C         -0.3340  -37.0280   82.0220 C.2    54  PHE54       0.2264
     23  O         -0.9250  -37.5130   82.9880 O.2    54  PHE54      -0.2867
     24  CB        -0.2510  -34.5220   81.8290 C.3    54  PHE54       0.0534
     25  CG        -1.3830  -34.2190   82.7740 C.ar   54  PHE54      -0.0203
     26  CD1       -1.1730  -33.4210   83.8980 C.ar   54  PHE54      -0.0042
     27  CD2       -2.6630  -34.7220   82.5360 C.ar   54  PHE54      -0.0042
     28  CE1       -2.2210  -33.1360   84.7780 C.ar   54  PHE54      -0.0003
     29  CE2       -3.7180  -34.4420   83.4070 C.ar   54  PHE54      -0.0003
     30  CZ        -3.4980  -33.6490   84.5290 C.ar   54  PHE54      -0.0000
     31  N          4.8960  -22.4490   82.4080 N.3    89  ILE89      -0.1231
     32  CA         3.9240  -23.3460   81.7910 C.3    89  ILE89       0.1692
     33  C          3.1200  -22.6410   80.6980 C.2    89  ILE89       0.2591
     34  O          2.8990  -23.1960   79.6260 O.2    89  ILE89      -0.2718
     35  CB         2.9590  -23.9390   82.8570 C.3    89  ILE89       0.0266
     36  CG1        3.6350  -25.0700   83.6510 C.3    89  ILE89       0.0019
     37  CG2        1.6380  -24.4020   82.2350 C.3    89  ILE89       0.0020
     38  CD1        4.2550  -26.1930   82.8060 C.3    89  ILE89       0.0001
     39  N          2.6970  -21.4110   80.9700 N.am   90  VAL90      -0.1980
     40  CA         1.7400  -20.7210   80.1060 C.3    90  VAL90       0.1595
     41  C          2.3830  -19.9290   78.9570 C.2    90  VAL90       0.2287
     42  O          1.7220  -19.6440   77.9540 O.2    90  VAL90      -0.2864
     43  CB         0.7650  -19.8350   80.9390 C.3    90  VAL90       0.0276
     44  CG1        1.3600  -18.4510   81.2160 C.3    90  VAL90       0.0022
     45  CG2       -0.5840  -19.7200   80.2470 C.3    90  VAL90       0.0022
     46  N          2.7250  -22.0610   75.7210 N.3    93  LEU93      -0.1231
     47  CA         1.3790  -22.4040   75.2710 C.3    93  LEU93       0.1693
     48  C          0.7270  -21.2300   74.5400 C.2    93  LEU93       0.2591
     49  O          0.1790  -21.4000   73.4480 O.2    93  LEU93      -0.2718
     50  CB         0.5250  -22.8930   76.4500 C.3    93  LEU93       0.0284
     51  CG        -0.8290  -23.6020   76.2660 C.3    93  LEU93       0.0019
     52  CD1       -1.9710  -22.7500   76.7820 C.3    93  LEU93       0.0001
     53  CD2       -1.0980  -24.0640   74.8380 C.3    93  LEU93       0.0001
     54  N          0.8210  -20.0410   75.1290 N.am   94  MET94      -0.1979
     55  CA         0.2960  -18.8330   74.4970 C.3    94  MET94       0.1605
     56  C          1.0110  -18.4930   73.1850 C.2    94  MET94       0.2287
     57  O          0.3490  -18.2510   72.1670 O.2    94  MET94      -0.2864
     58  CB         0.3120  -17.6590   75.4710 C.3    94  MET94       0.0413
     59  CG        -0.7990  -17.7200   76.5110 C.3    94  MET94       0.0598
     60  SD        -2.4570  -17.7440   75.7820 S.3    94  MET94      -0.1393
     61  CE        -2.9590  -19.4510   75.9690 C.3    94  MET94       0.0692
     62  N         -0.0190  -20.9130   70.5590 N.3    97  THR97      -0.1203
     63  CA        -1.4120  -20.6250   70.2050 C.3    97  THR97       0.1994
     64  C         -1.5250  -19.4400   69.2400 C.2    97  THR97       0.2617
     65  O         -2.1050  -19.5880   68.1630 O.2    97  THR97      -0.2717
     66  CB        -2.2990  -20.3940   71.4470 C.3    97  THR97       0.1784
     67  OG1       -2.1830  -21.5160   72.3280 O.3    97  THR97      -0.2211
     68  CG2       -3.7630  -20.2300   71.0500 C.3    97  THR97       0.0376
     69  N         -0.9710  -18.2830   69.6070 N.am   98  TRP98      -0.1975
     70  CA        -1.0520  -17.1050   68.7250 C.3    98  TRP98       0.1640
     71  C         -0.3970  -17.3710   67.3670 C.2    98  TRP98       0.2290
     72  O         -1.0550  -17.2630   66.3320 O.2    98  TRP98      -0.2864
     73  CB        -0.4750  -15.8320   69.3700 C.3    98  TRP98       0.0576
     74  CG        -1.1140  -15.4640   70.6760 C.ar   98  TRP98       0.0006
     75  CD1       -0.5010  -15.4100   71.8930 C.ar   98  TRP98       0.0946
     76  CD2       -2.4880  -15.1080   70.9040 C.ar   98  TRP98       0.0152
     77  NE1       -1.4010  -15.0470   72.8640 N.ar   98  TRP98      -0.2442
     78  CE2       -2.6290  -14.8530   72.2860 C.ar   98  TRP98       0.0810
     79  CE3       -3.6120  -14.9740   70.0740 C.ar   98  TRP98       0.0012
     80  CZ2       -3.8530  -14.4790   72.8620 C.ar   98  TRP98       0.0191
     81  CZ3       -4.8340  -14.6000   70.6490 C.ar   98  TRP98       0.0001
     82  CH2       -4.9390  -14.3600   72.0290 C.ar   98  TRP98       0.0015
     83  N         -2.3770  -19.3960   65.0760 N.3   101  ILE101     -0.1245
     84  CA        -3.3810  -18.6240   64.3430 C.3   101  ILE101      0.1561
     85  C         -2.7240  -17.9950   63.1230 C.2   101  ILE101      0.2260
     86  O         -3.2870  -18.0120   62.0250 O.2   101  ILE101     -0.2867
     87  CB        -4.0420  -17.5260   65.2210 C.3   101  ILE101      0.0252
     88  CG1       -4.6900  -18.1490   66.4570 C.3   101  ILE101      0.0019
     89  CG2       -5.0900  -16.7500   64.4280 C.3   101  ILE101      0.0019
     90  CD1       -4.8200  -17.2140   67.6270 C.3   101  ILE101      0.0001
     91  N         -2.7020  -14.5620   82.1140 N.3   135  LEU135     -0.1245
     92  CA        -3.2010  -15.8650   82.5670 C.3   135  LEU135      0.1561
     93  C         -2.6170  -16.3170   83.9050 C.2   135  LEU135      0.2260
     94  O         -3.3530  -16.7820   84.7730 O.2   135  LEU135     -0.2867
     95  CB        -2.9910  -16.9500   81.5030 C.3   135  LEU135      0.0270
     96  CG        -3.9440  -16.9890   80.3040 C.3   135  LEU135      0.0019
     97  CD1       -3.7110  -18.2530   79.5000 C.3   135  LEU135      0.0001
     98  CD2       -5.3990  -16.9060   80.7230 C.3   135  LEU135      0.0001
     99  N         -4.4670  -15.1480   86.9790 N.3   138  MET138     -0.1245
    100  CA        -5.8230  -15.6260   87.2780 C.3   138  MET138      0.1570
    101  C         -5.8790  -16.4910   88.5420 C.2   138  MET138      0.2261
    102  O         -6.6590  -16.2130   89.4560 O.2   138  MET138     -0.2867
    103  CB        -6.4150  -16.3900   86.0880 C.3   138  MET138      0.0387
    104  CG        -6.9300  -15.5080   84.9590 C.3   138  MET138      0.0595
    105  SD        -7.6900  -16.4710   83.6260 S.3   138  MET138     -0.1393
    106  CE        -8.2040  -15.1580   82.5110 C.3   138  MET138      0.0692
@<TRIPOS>BOND
     1    86    85    2
     2    85    84    1
     3    84    83    1
     4    84    87    1
     5    89    87    1
     6    87    88    1
     7    72    71    2
     8    88    90    1
     9    71    70    1
    10    65    64    2
    11    70    73    1
    12    70    69    1
    13    64    69   am
    14    64    63    1
    15    73    74    1
    16    79    81   ar
    17    79    76   ar
    18    63    62    1
    19    63    66    1
    20    81    82   ar
    21    74    76   ar
    22    74    75   ar
    23    76    78   ar
    24    68    66    1
    25    66    67    1
    26    75    77   ar
    27    82    80   ar
    28    57    56    2
    29    78    80   ar
    30    78    77   ar
    31    56    55    1
    32    49    48    2
    33     8     6    1
    34     5     6    1
    35     5     2    1
    36     1     2    1
    37    55    54    1
    38    55    58    1
    39    48    54   am
    40    48    47    1
    41     6     7    1
    42     3     2    1
    43     3     4    2
    44    53    51    1
    45    47    46    1
    46    47    50    1
    47    58    59    1
    48    60    61    1
    49    60    59    1
    50    18    17    1
    51    19    17    1
    52    17    14    1
    53    51    50    1
    54    51    52    1
    55    14    15    1
    56    14    13    1
    57     9    10    1
    58    15    16    2
    59    13    11   am
    60    42    41    2
    61    10    11    1
    62    11    12    2
    63    41    40    1
    64    97    96    1
    65    34    33    2
    66    40    43    1
    67    40    39    1
    68    45    43    1
    69    96    98    1
    70    96    95    1
    71    33    39   am
    72    33    32    1
    73    43    44    1
    74    20    21    1
    75    95    92    1
    76    32    31    1
    77    32    35    1
    78    24    21    1
    79    24    25    1
    80    22    21    1
    81    22    23    2
    82    91    92    1
    83    37    35    1
    84   106   105    1
    85    27    25   ar
    86    27    29   ar
    87    92    93    1
    88    25    26   ar
    89    38    36    1
    90    35    36    1
    91    29    30   ar
    92   105   104    1
    93    26    28   ar
    94    93    94    2
    95    30    28   ar
    96   104   103    1
    97   103   100    1
    98    99   100    1
    99   100   101    1
   100   101   102    2
