@<TRIPOS>MOLECULE
tmp/3ae5C01.pdb
 88 82 0 0 0
SMALL
GASTEIGER

@<TRIPOS>ATOM
      1  N        -29.9740  -28.2570   74.5860 N.3    47  LEU47      -0.1245
      2  CA       -31.3490  -28.4920   75.0230 C.3    47  LEU47       0.1561
      3  C        -31.7460  -29.9660   74.9650 C.2    47  LEU47       0.2260
      4  O        -32.3130  -30.4910   75.9250 O.2    47  LEU47      -0.2867
      5  CB       -32.3300  -27.6330   74.2170 C.3    47  LEU47       0.0270
      6  CG       -32.8090  -26.2900   74.7840 C.3    47  LEU47       0.0019
      7  CD1      -31.6670  -25.3370   75.1150 C.3    47  LEU47       0.0001
      8  CD2      -33.7720  -25.6360   73.8080 C.3    47  LEU47       0.0001
      9  N        -30.3240  -31.7850   77.6500 N.3    50  GLY50      -0.1210
     10  CA       -31.0800  -31.5310   78.8730 C.3    50  GLY50       0.1956
     11  C        -32.3510  -32.3570   78.9540 C.2    50  GLY50       0.2611
     12  O        -32.6300  -32.9780   79.9830 O.2    50  GLY50      -0.2717
     13  N        -33.1170  -32.3630   77.8640 N.am   51  VAL51      -0.1979
     14  CA       -34.3870  -33.0900   77.7950 C.3    51  VAL51       0.1595
     15  C        -34.1690  -34.6020   77.8890 C.2    51  VAL51       0.2287
     16  O        -34.9310  -35.3030   78.5590 O.2    51  VAL51      -0.2864
     17  CB       -35.1920  -32.7310   76.5150 C.3    51  VAL51       0.0276
     18  CG1      -36.4960  -33.5240   76.4410 C.3    51  VAL51       0.0022
     19  CG2      -35.4890  -31.2380   76.4700 C.3    51  VAL51       0.0022
     20  N        -33.4570  -35.5610   81.2730 N.3    54  PHE54      -0.1241
     21  CA       -34.6770  -35.5140   82.0750 C.3    54  PHE54       0.1605
     22  C        -35.5360  -36.7570   81.8540 C.2    54  PHE54       0.2264
     23  O        -36.2070  -37.2260   82.7760 O.2    54  PHE54      -0.2867
     24  CB       -35.4820  -34.2480   81.7690 C.3    54  PHE54       0.0534
     25  CG       -36.5850  -33.9800   82.7540 C.ar   54  PHE54      -0.0203
     26  CD1      -36.3280  -33.2820   83.9320 C.ar   54  PHE54      -0.0042
     27  CD2      -37.8820  -34.4240   82.5080 C.ar   54  PHE54      -0.0042
     28  CE1      -37.3440  -33.0320   84.8500 C.ar   54  PHE54      -0.0003
     29  CE2      -38.9050  -34.1810   83.4190 C.ar   54  PHE54      -0.0003
     30  CZ       -38.6360  -33.4820   84.5920 C.ar   54  PHE54      -0.0000
     31  N        -40.1660  -36.7290   92.0650 N.3    65  PHE65      -0.1241
     32  CA       -39.6790  -35.3850   91.7540 C.3    65  PHE65       0.1605
     33  C        -39.7410  -34.4290   92.9480 C.2    65  PHE65       0.2264
     34  O        -38.8770  -33.5610   93.0930 O.2    65  PHE65      -0.2867
     35  CB       -40.4420  -34.8040   90.5580 C.3    65  PHE65       0.0534
     36  CG       -39.8370  -33.5420   89.9990 C.ar   65  PHE65      -0.0203
     37  CD1      -38.6350  -33.5790   89.2950 C.ar   65  PHE65      -0.0042
     38  CD2      -40.4770  -32.3170   90.1630 C.ar   65  PHE65      -0.0042
     39  CE1      -38.0750  -32.4130   88.7720 C.ar   65  PHE65      -0.0003
     40  CE2      -39.9260  -31.1460   89.6410 C.ar   65  PHE65      -0.0003
     41  CZ       -38.7230  -31.1950   88.9460 C.ar   65  PHE65      -0.0000
     42  N        -30.8130  -21.3580   81.9740 N.3    89  ILE89      -0.1231
     43  CA       -31.6390  -22.3770   81.3250 C.3    89  ILE89       0.1692
     44  C        -32.6570  -21.7170   80.3900 C.2    89  ILE89       0.2591
     45  O        -33.0590  -22.3050   79.3850 O.2    89  ILE89      -0.2718
     46  CB       -32.3580  -23.2910   82.3610 C.3    89  ILE89       0.0266
     47  CG1      -31.3710  -23.8370   83.4110 C.3    89  ILE89       0.0019
     48  CG2      -33.1270  -24.4240   81.6680 C.3    89  ILE89       0.0020
     49  CD1      -30.1910  -24.6520   82.8620 C.3    89  ILE89       0.0001
     50  N        -33.0590  -20.4920   80.7230 N.am   90  VAL90      -0.1980
     51  CA       -33.9740  -19.7160   79.8840 C.3    90  VAL90       0.1595
     52  C        -33.2300  -19.1200   78.6880 C.2    90  VAL90       0.2287
     53  O        -33.7650  -19.0780   77.5790 O.2    90  VAL90      -0.2864
     54  CB       -34.6660  -18.5710   80.6690 C.3    90  VAL90       0.0276
     55  CG1      -35.9110  -18.0900   79.9300 C.3    90  VAL90       0.0022
     56  CG2      -35.0380  -19.0170   82.0690 C.3    90  VAL90       0.0022
     57  N        -32.7690  -21.4930   75.8300 N.3    93  LEU93      -0.1231
     58  CA       -34.0940  -21.8210   75.3030 C.3    93  LEU93       0.1693
     59  C        -34.6680  -20.6760   74.4750 C.2    93  LEU93       0.2591
     60  O        -35.0970  -20.8820   73.3400 O.2    93  LEU93      -0.2718
     61  CB       -35.0500  -22.2020   76.4470 C.3    93  LEU93       0.0284
     62  CG       -36.4970  -22.6830   76.2200 C.3    93  LEU93       0.0019
     63  CD1      -37.4720  -21.5260   75.9960 C.3    93  LEU93       0.0001
     64  CD2      -36.6200  -23.7220   75.1040 C.3    93  LEU93       0.0001
     65  N        -34.6620  -19.4750   75.0490 N.am   94  MET94      -0.1979
     66  CA       -35.2760  -18.3090   74.4170 C.3    94  MET94       0.1605
     67  C        -34.5450  -17.8240   73.1670 C.2    94  MET94       0.2287
     68  O        -35.1740  -17.2920   72.2510 O.2    94  MET94      -0.2864
     69  CB       -35.4760  -17.1770   75.4290 C.3    94  MET94       0.0413
     70  CG       -36.7430  -17.3400   76.2590 C.3    94  MET94       0.0598
     71  SD       -38.2080  -17.4450   75.2060 S.3    94  MET94      -0.1393
     72  CE       -39.3690  -18.2860   76.2750 C.3    94  MET94       0.0692
     73  N        -38.5570  -13.7920   82.1350 N.3   135  LEU135     -0.1245
     74  CA       -39.0510  -15.0780   82.6430 C.3   135  LEU135      0.1561
     75  C        -38.3590  -15.5480   83.9210 C.2   135  LEU135      0.2260
     76  O        -38.9950  -16.1600   84.7820 O.2   135  LEU135     -0.2867
     77  CB       -38.9450  -16.1730   81.5770 C.3   135  LEU135      0.0270
     78  CG       -40.0700  -16.3460   80.5520 C.3   135  LEU135      0.0019
     79  CD1      -39.7650  -17.5540   79.6920 C.3   135  LEU135      0.0001
     80  CD2      -41.4370  -16.5080   81.2110 C.3   135  LEU135      0.0001
     81  N        -40.1240  -13.9970   86.6140 N.3   138  MET138     -0.1245
     82  CA       -41.5350  -14.3810   86.6870 C.3   138  MET138      0.1570
     83  C        -41.7490  -15.5380   87.6610 C.2   138  MET138      0.2261
     84  O        -42.8190  -15.6820   88.2540 O.2   138  MET138     -0.2867
     85  CB       -42.0520  -14.7670   85.2970 C.3   138  MET138      0.0387
     86  CG       -43.5570  -14.6010   85.1080 C.3   138  MET138      0.0595
     87  SD       -44.1380  -15.1640   83.4900 S.3   138  MET138     -0.1393
     88  CE       -44.2880  -16.9280   83.7730 C.3   138  MET138      0.0692
@<TRIPOS>BOND
     1    68    67    2
     2    67    66    1
     3    60    59    2
     4     8     6    1
     5     5     6    1
     6     5     2    1
     7    66    65    1
     8    66    69    1
     9    59    65   am
    10    59    58    1
    11     1     2    1
    12     6     7    1
    13     3     2    1
    14     3     4    2
    15    64    62    1
    16    71    70    1
    17    71    72    1
    18    58    57    1
    19    58    61    1
    20    69    70    1
    21    63    62    1
    22    62    61    1
    23    18    17    1
    24    19    17    1
    25    17    14    1
    26    53    52    2
    27     9    10    1
    28    14    13    1
    29    14    15    1
    30    13    11   am
    31    15    16    2
    32    52    51    1
    33    10    11    1
    34    11    12    2
    35    45    44    2
    36    79    78    1
    37    51    54    1
    38    51    50    1
    39    55    54    1
    40    44    50   am
    41    44    43    1
    42    78    80    1
    43    78    77    1
    44    54    56    1
    45    20    21    1
    46    43    42    1
    47    43    46    1
    48    77    74    1
    49    48    46    1
    50    24    21    1
    51    24    25    1
    52    22    21    1
    53    22    23    2
    54    73    74    1
    55    46    47    1
    56    27    25   ar
    57    27    29   ar
    58    74    75    1
    59    25    26   ar
    60    49    47    1
    61    29    30   ar
    62    87    88    1
    63    87    86    1
    64    75    76    2
    65    26    28   ar
    66    30    28   ar
    67    86    85    1
    68    85    82    1
    69    81    82    1
    70    82    83    1
    71    83    84    2
    72    39    41   ar
    73    39    37   ar
    74    41    40   ar
    75    37    36   ar
    76    40    38   ar
    77    36    38   ar
    78    36    35    1
    79    35    32    1
    80    32    31    1
    81    32    33    1
    82    33    34    2
