@<TRIPOS>MOLECULE
tmp/3ae8D01.pdb
 109 104 0 0 0
SMALL
GASTEIGER

@<TRIPOS>ATOM
      1  N         46.1530  -24.2400  -73.8270 N.3    23  LEU23      -0.1245
      2  CA        45.4520  -23.6590  -74.9810 C.3    23  LEU23       0.1561
      3  C         46.2590  -22.5940  -75.7380 C.2    23  LEU23       0.2260
      4  O         46.2970  -22.6240  -76.9690 O.2    23  LEU23      -0.2867
      5  CB        44.0620  -23.1310  -74.5980 C.3    23  LEU23       0.0270
      6  CG        42.9410  -24.1360  -74.3040 C.3    23  LEU23       0.0019
      7  CD1       41.6410  -23.3950  -74.0460 C.3    23  LEU23       0.0001
      8  CD2       42.7570  -25.1410  -75.4360 C.3    23  LEU23       0.0001
      9  N         49.4200  -24.3920  -77.2440 N.3    26  ALA26      -0.1231
     10  CA        49.1400  -25.1150  -78.4850 C.3    26  ALA26       0.1694
     11  C         49.1550  -24.1810  -79.6950 C.2    26  ALA26       0.2592
     12  O         49.4900  -24.5990  -80.8060 O.2    26  ALA26      -0.2718
     13  CB        47.8070  -25.8390  -78.3860 C.3    26  ALA26       0.0304
     14  N         48.7850  -22.9210  -79.4690 N.am   27  TYR27      -0.1976
     15  CA        48.8470  -21.8830  -80.4980 C.3    27  TYR27       0.1639
     16  C         50.2980  -21.5220  -80.8170 C.2    27  TYR27       0.2290
     17  O         50.6480  -21.2910  -81.9760 O.2    27  TYR27      -0.2864
     18  CB        48.0630  -20.6400  -80.0520 C.3    27  TYR27       0.0560
     19  CG        48.1950  -19.4400  -80.9710 C.ar   27  TYR27      -0.0198
     20  CD1       47.4180  -19.3310  -82.1250 C.ar   27  TYR27      -0.0009
     21  CD2       49.0900  -18.4090  -80.6790 C.ar   27  TYR27      -0.0009
     22  CE1       47.5360  -18.2280  -82.9700 C.ar   27  TYR27       0.0417
     23  CE2       49.2160  -17.3040  -81.5170 C.ar   27  TYR27       0.0417
     24  CZ        48.4360  -17.2200  -82.6600 C.ar   27  TYR27       0.1957
     25  OH        48.5560  -16.1290  -83.4910 O.3    27  TYR27      -0.2866
     26  N         52.4530  -25.9570  -81.9640 N.3    30  PRO30      -0.2116
     27  CA        51.4900  -26.9570  -82.4200 C.3    30  PRO30       0.1372
     28  C         52.1610  -28.2780  -82.8130 C.2    30  PRO30       0.2244
     29  O         51.9540  -28.7800  -83.9220 O.2    30  PRO30      -0.2868
     30  CB        50.8410  -26.2820  -83.6350 C.3    30  PRO30       0.0268
     31  CG        51.8450  -25.2550  -84.1100 C.3    30  PRO30       0.0207
     32  CD        52.9390  -25.1280  -83.0810 C.3    30  PRO30       0.0892
     33  N         47.1160  -32.3730  -74.7720 N.3    38  LEU38      -0.1245
     34  CA        45.8710  -31.6230  -74.9090 C.3    38  LEU38       0.1561
     35  C         44.6780  -32.5770  -74.9540 C.2    38  LEU38       0.2260
     36  O         43.6190  -32.2790  -74.4040 O.2    38  LEU38      -0.2867
     37  CB        45.9080  -30.7370  -76.1610 C.3    38  LEU38       0.0270
     38  CG        44.8960  -29.5940  -76.3190 C.3    38  LEU38       0.0019
     39  CD1       45.0370  -28.5460  -75.2190 C.3    38  LEU38       0.0001
     40  CD2       45.0470  -28.9450  -77.6860 C.3    38  LEU38       0.0001
     41  N         41.8050  -32.3750  -72.1330 N.3    42  LEU42      -0.1245
     42  CA        40.4220  -32.1770  -72.5770 C.3    42  LEU42       0.1561
     43  C         39.4740  -33.2560  -72.0540 C.2    42  LEU42       0.2260
     44  O         38.3600  -32.9540  -71.6190 O.2    42  LEU42      -0.2867
     45  CB        40.3470  -32.1240  -74.1090 C.3    42  LEU42       0.0270
     46  CG        40.1990  -30.7810  -74.8340 C.3    42  LEU42       0.0019
     47  CD1       41.4190  -29.8860  -74.6760 C.3    42  LEU42       0.0001
     48  CD2       39.9180  -31.0270  -76.3090 C.3    42  LEU42       0.0001
     49  N         40.7450  -39.6760  -79.7680 N.3    82  LEU82      -0.1245
     50  CA        41.6130  -38.5130  -79.9480 C.3    82  LEU82       0.1561
     51  C         43.0730  -38.9160  -80.1400 C.2    82  LEU82       0.2260
     52  O         43.7850  -38.3080  -80.9390 O.2    82  LEU82      -0.2867
     53  CB        41.4750  -37.5400  -78.7720 C.3    82  LEU82       0.0270
     54  CG        40.2180  -36.6650  -78.7210 C.3    82  LEU82       0.0019
     55  CD1       40.0310  -36.0760  -77.3310 C.3    82  LEU82       0.0001
     56  CD2       40.2560  -35.5600  -79.7750 C.3    82  LEU82       0.0001
     57  N         45.2020  -32.8660  -83.5580 N.3    92  ILE92      -0.1231
     58  CA        44.1940  -31.8690  -83.1680 C.3    92  ILE92       0.1692
     59  C         44.6410  -30.4080  -83.3100 C.2    92  ILE92       0.2592
     60  O         43.8010  -29.5140  -83.4250 O.2    92  ILE92      -0.2718
     61  CB        43.6050  -32.1310  -81.7490 C.3    92  ILE92       0.0266
     62  CG1       44.7180  -32.2980  -80.7060 C.3    92  ILE92       0.0019
     63  CG2       42.6760  -33.3450  -81.7770 C.3    92  ILE92       0.0020
     64  CD1       44.2300  -32.2920  -79.2650 C.3    92  ILE92       0.0001
     65  N         45.9530  -30.1720  -83.3060 N.am   93  CYS93      -0.1970
     66  CA        46.4930  -28.8330  -83.5550 C.3    93  CYS93       0.1712
     67  C         46.3720  -28.4520  -85.0290 C.2    93  CYS93       0.2296
     68  O         45.9570  -27.3380  -85.3570 O.2    93  CYS93      -0.2864
     69  CB        47.9500  -28.7270  -83.0970 C.3    93  CYS93       0.0983
     70  SG        48.1570  -28.4280  -81.3260 S.3    93  CYS93      -0.0798
     71  N         44.3200  -29.9060  -87.0550 N.3    95  ALA95      -0.1231
     72  CA        42.8880  -29.9900  -87.3490 C.3    95  ALA95       0.1694
     73  C         42.2010  -28.6310  -87.2410 C.2    95  ALA95       0.2592
     74  O         41.3610  -28.2890  -88.0750 O.2    95  ALA95      -0.2718
     75  CB        42.2120  -31.0000  -86.4330 C.3    95  ALA95       0.0304
     76  N         42.5640  -27.8670  -86.2120 N.am   96  VAL96      -0.1966
     77  CA        42.0210  -26.5250  -85.9990 C.3    96  VAL96       0.1727
     78  C         42.5660  -25.5570  -87.0500 C.2    96  VAL96       0.2616
     79  O         41.8130  -24.7650  -87.6190 O.2    96  VAL96      -0.2715
     80  CB        42.3270  -26.0000  -84.5670 C.3    96  VAL96       0.0290
     81  CG1       41.7760  -24.5920  -84.3690 C.3    96  VAL96       0.0023
     82  CG2       41.7520  -26.9400  -83.5150 C.3    96  VAL96       0.0023
     83  N         43.8710  -25.6470  -87.3100 N.am   97  ALA97      -0.1977
     84  CA        44.5580  -24.7790  -88.2710 C.3    97  ALA97       0.1597
     85  C         43.9380  -24.8280  -89.6690 C.2    97  ALA97       0.2287
     86  O         43.7910  -23.7940  -90.3240 O.2    97  ALA97      -0.2864
     87  CB        46.0420  -25.1250  -88.3320 C.3    97  ALA97       0.0319
     88  N         40.7950  -26.0440  -90.2860 N.3    99  LEU99      -0.1231
     89  CA        39.3770  -25.7170  -90.1290 C.3    99  LEU99       0.1693
     90  C         39.1280  -24.2120  -90.0430 C.2    99  LEU99       0.2592
     91  O         38.1130  -23.7180  -90.5370 O.2    99  LEU99      -0.2718
     92  CB        38.8080  -26.4180  -88.8870 C.3    99  LEU99       0.0284
     93  CG        37.3310  -26.2480  -88.5090 C.3    99  LEU99       0.0019
     94  CD1       36.4210  -27.0520  -89.4300 C.3    99  LEU99       0.0001
     95  CD2       37.1080  -26.6500  -87.0600 C.3    99  LEU99       0.0001
     96  N         40.0580  -23.4910  -89.4210 N.am  100  TRP100     -0.1976
     97  CA        39.8620  -22.0710  -89.1350 C.3   100  TRP100      0.1640
     98  C         40.1320  -21.1620  -90.3340 C.2   100  TRP100      0.2290
     99  O         39.6120  -20.0450  -90.3970 O.2   100  TRP100     -0.2864
    100  CB        40.7010  -21.6390  -87.9310 C.3   100  TRP100      0.0576
    101  CG        39.9520  -20.7370  -87.0050 C.ar  100  TRP100      0.0006
    102  CD1       40.0910  -19.3870  -86.8850 C.ar  100  TRP100      0.0946
    103  CD2       38.9290  -21.1210  -86.0770 C.ar  100  TRP100      0.0152
    104  NE1       39.2250  -18.9040  -85.9340 N.ar  100  TRP100     -0.2442
    105  CE2       38.4990  -19.9470  -85.4220 C.ar  100  TRP100      0.0810
    106  CE3       38.3370  -22.3440  -85.7330 C.ar  100  TRP100      0.0012
    107  CZ2       37.5040  -19.9580  -84.4410 C.ar  100  TRP100      0.0191
    108  CZ3       37.3460  -22.3540  -84.7570 C.ar  100  TRP100      0.0001
    109  CH2       36.9400  -21.1680  -84.1240 C.ar  100  TRP100      0.0015
@<TRIPOS>BOND
     1    91    90    2
     2    99    98    2
     3    98    97    1
     4    86    85    2
     5    88    89    1
     6    89    90    1
     7    89    92    1
     8    90    96   am
     9    85    84    1
    10    94    93    1
    11    96    97    1
    12    97   100    1
    13    92    93    1
    14    93    95    1
    15    87    84    1
    16    84    83    1
    17    74    73    2
    18   100   101    1
    19    79    78    2
    20    72    73    1
    21    72    71    1
    22    72    75    1
    23    83    78   am
    24    73    76   am
    25    78    77    1
    26   101   102   ar
    27   101   103   ar
    28   102   104   ar
    29    76    77    1
    30   103   106   ar
    31   103   105   ar
    32    77    80    1
    33   104   105   ar
    34   106   108   ar
    35   105   107   ar
    36    68    67    2
    37    67    66    1
    38   108   109   ar
    39    80    81    1
    40    80    82    1
    41   107   109   ar
    42    31    30    1
    43    31    32    1
    44    29    28    2
    45    30    27    1
    46    57    58    1
    47    66    65    1
    48    66    69    1
    49    25    24    1
    50    60    59    2
    51    59    65   am
    52    59    58    1
    53    58    61    1
    54    69    70    1
    55    32    26    1
    56    22    24   ar
    57    22    20   ar
    58    28    27    1
    59    24    23   ar
    60    27    26    1
    61    20    19   ar
    62    17    16    2
    63    63    61    1
    64    61    62    1
    65    23    21   ar
    66    19    21   ar
    67    19    18    1
    68    52    51    2
    69    16    15    1
    70    12    11    2
    71    62    64    1
    72    15    18    1
    73    15    14    1
    74    51    50    1
    75    50    49    1
    76    50    53    1
    77    56    54    1
    78    11    14   am
    79    11    10    1
    80    53    54    1
    81    54    55    1
    82    10    13    1
    83    10     9    1
    84    40    38    1
    85     4     3    2
    86    38    37    1
    87    38    39    1
    88    48    46    1
    89    37    34    1
    90     3     2    1
    91     8     6    1
    92     2     5    1
    93     2     1    1
    94    35    34    1
    95    35    36    2
    96    34    33    1
    97    46    47    1
    98    46    45    1
    99     5     6    1
   100     6     7    1
   101    45    42    1
   102    42    41    1
   103    42    43    1
   104    43    44    2
