@<TRIPOS>MOLECULE
tmp/3aeaA01.pdb
 104 98 0 0 0
SMALL
GASTEIGER

@<TRIPOS>ATOM
      1  N         17.1240   10.0100  -26.5020 N.3    52  ALA52      -0.1231
      2  CA        16.3210    9.3450  -25.4760 C.3    52  ALA52       0.1694
      3  C         15.0300    8.7560  -26.0380 C.2    52  ALA52       0.2592
      4  O         14.3200    9.4060  -26.8110 O.2    52  ALA52      -0.2718
      5  CB        16.0310   10.2870  -24.3210 C.3    52  ALA52       0.0304
      6  N         14.7400    7.5220  -25.6280 N.am   53  GLN53      -0.1966
      7  CA        13.6970    6.7090  -26.2530 C.3    53  GLN53       0.1733
      8  C         12.6160    6.2090  -25.2960 C.2    53  GLN53       0.2617
      9  O         11.4420    6.1340  -25.6690 O.2    53  GLN53      -0.2715
     10  CB        14.3280    5.5150  -26.9790 C.3    53  GLN53       0.0408
     11  CG        15.1340    5.8850  -28.2180 C.3    53  GLN53       0.0908
     12  CD        15.7240    4.6770  -28.9260 C.2    53  GLN53       0.2608
     13  OE1       16.0500    3.6670  -28.2970 O.2    53  GLN53      -0.2717
     14  NE2       15.8700    4.7780  -30.2450 N.am   53  GLN53      -0.0878
     15  N         13.0200    5.8640  -24.0750 N.am   54  GLY54      -0.1940
     16  CA        12.1370    5.2370  -23.0900 C.3    54  GLY54       0.2014
     17  C         10.9610    6.0890  -22.6640 C.2    54  GLY54       0.2639
     18  O          9.8500    5.9280  -23.1750 O.2    54  GLY54      -0.2714
     19  N         11.2050    6.9950  -21.7230 N.am   55  GLY55      -0.1954
     20  CA        10.1650    7.8940  -21.2450 C.3    55  GLY55       0.1869
     21  C         10.5740    8.7420  -20.0620 C.2    55  GLY55       0.2309
     22  O         11.7430    8.7690  -19.6700 O.2    55  GLY55      -0.2863
     23  N          7.8460    0.0710  -16.5390 N.3   122  PHE122     -0.1241
     24  CA         9.2850    0.1990  -16.7380 C.3   122  PHE122      0.1605
     25  C         10.0590   -0.5400  -15.6470 C.2   122  PHE122      0.2264
     26  O          9.4870   -0.9290  -14.6240 O.2   122  PHE122     -0.2867
     27  CB         9.6800    1.6760  -16.7770 C.3   122  PHE122      0.0534
     28  CG        10.5350    2.0460  -17.9570 C.ar  122  PHE122     -0.0203
     29  CD1       11.8960    2.2800  -17.8020 C.ar  122  PHE122     -0.0042
     30  CD2        9.9770    2.1710  -19.2260 C.ar  122  PHE122     -0.0042
     31  CE1       12.6890    2.6310  -18.8910 C.ar  122  PHE122     -0.0003
     32  CE2       10.7620    2.5200  -20.3200 C.ar  122  PHE122     -0.0003
     33  CZ        12.1190    2.7490  -20.1510 C.ar  122  PHE122     -0.0000
     34  N         23.6610   -0.4660  -19.4640 N.3   245  HIS245     -0.1241
     35  CA        22.3370   -0.7660  -20.0050 C.3   245  HIS245      0.1621
     36  C         22.3440   -2.1570  -20.6230 C.2   245  HIS245      0.2264
     37  O         23.1470   -2.4320  -21.5180 O.2   245  HIS245     -0.2867
     38  CB        21.9240    0.2660  -21.0540 C.3   245  HIS245      0.0745
     39  CG        20.4730    0.2130  -21.4190 C.ar  245  HIS245      0.0817
     40  ND1       19.5940    1.2330  -21.1240 N.ar  245  HIS245     -0.2268
     41  CD2       19.7460   -0.7350  -22.0590 C.ar  245  HIS245      0.1154
     42  CE1       18.3900    0.9160  -21.5660 C.ar  245  HIS245      0.1986
     43  NE2       18.4550   -0.2740  -22.1360 N.ar  245  HIS245     -0.2212
     44  N         21.5850    1.9300  -29.1090 N.3   255  LEU255     -0.1245
     45  CA        20.6690    1.5320  -28.0440 C.3   255  LEU255      0.1561
     46  C         19.2500    1.2420  -28.5250 C.2   255  LEU255      0.2260
     47  O         18.6690    2.0200  -29.2850 O.2   255  LEU255     -0.2867
     48  CB        20.6170    2.6160  -26.9610 C.3   255  LEU255      0.0270
     49  CG        19.5850    2.4140  -25.8450 C.3   255  LEU255      0.0019
     50  CD1       20.1960    1.7090  -24.6500 C.3   255  LEU255      0.0001
     51  CD2       18.9840    3.7330  -25.4290 C.3   255  LEU255      0.0001
     52  N         15.5480    0.6900  -26.5440 N.3   257  THR257     -0.1203
     53  CA        14.9920    1.1380  -25.2620 C.3   257  THR257      0.1994
     54  C         14.7110    0.0210  -24.2530 C.2   257  THR257      0.2617
     55  O         14.5920   -1.1510  -24.6220 O.2   257  THR257     -0.2717
     56  CB        13.7130    2.0000  -25.4670 C.3   257  THR257      0.1784
     57  OG1       13.1650    2.3640  -24.1950 O.3   257  THR257     -0.2211
     58  CG2       12.6570    1.2470  -26.2700 C.3   257  THR257      0.0376
     59  N         14.6220    0.3970  -22.9770 N.am  258  GLU258     -0.1979
     60  CA        14.1400   -0.5010  -21.9270 C.3   258  GLU258      0.1602
     61  C         12.6180   -0.6430  -22.0430 C.2   258  GLU258      0.2287
     62  O         12.0220   -1.5610  -21.4740 O.2   258  GLU258     -0.2864
     63  CB        14.5540    0.0100  -20.5390 C.3   258  GLU258      0.0415
     64  CG        14.1690   -0.9040  -19.3700 C.3   258  GLU258      0.1163
     65  CD        14.9480   -0.6110  -18.0990 C.2   258  GLU258      0.3649
     66  OE1       16.1690   -0.8740  -18.0710 O.co2 258  GLU258     -0.2457
     67  OE2       14.3390   -0.1280  -17.1230 O.co2 258  GLU258     -0.2457
     68  N         18.4910   -2.0990  -13.6790 N.3   289  ARG289     -0.1245
     69  CA        19.5390   -2.1980  -14.7040 C.3   289  ARG289      0.1563
     70  C         20.8170   -2.9060  -14.2470 C.2   289  ARG289      0.2260
     71  O         21.5090   -3.5220  -15.0590 O.2   289  ARG289     -0.2867
     72  CB        19.8870   -0.8170  -15.2640 C.3   289  ARG289      0.0307
     73  CG        18.7350   -0.1080  -15.9520 C.3   289  ARG289      0.0489
     74  CD        19.2540    0.9170  -16.9380 C.3   289  ARG289      0.2205
     75  NE        18.4290    2.1220  -16.9570 N.pl3 289  ARG289     -0.0865
     76  CZ        17.4720    2.3720  -17.8460 C.cat 289  ARG289      0.5346
     77  NH1       17.2020    1.5040  -18.8110 N.pl3 289  ARG289      0.1354
     78  NH2       16.7820    3.4980  -17.7680 N.pl3 289  ARG289      0.1354
     79  N         25.9760    3.2270  -20.4040 N.3   356  HIS356     -0.1241
     80  CA        24.7640    3.9860  -20.6760 C.3   356  HIS356      0.1621
     81  C         24.6750    5.2740  -19.8660 C.2   356  HIS356      0.2264
     82  O         24.5840    6.3640  -20.4350 O.2   356  HIS356     -0.2867
     83  CB        23.5450    3.1130  -20.3980 C.3   356  HIS356      0.0745
     84  CG        22.2510    3.7260  -20.8260 C.ar  356  HIS356      0.0817
     85  ND1       21.8070    3.6890  -22.1300 N.ar  356  HIS356     -0.2268
     86  CD2       21.2990    4.3820  -20.1210 C.ar  356  HIS356      0.1154
     87  CE1       20.6380    4.2990  -22.2110 C.ar  356  HIS356      0.1986
     88  NE2       20.3080    4.7290  -21.0060 N.ar  356  HIS356     -0.2212
     89  N         20.7940    3.9160  -11.3060 N.3   400  ARG400     -0.1245
     90  CA        19.6700    4.7030  -11.8110 C.3   400  ARG400      0.1563
     91  C         18.4530    3.8300  -12.1130 C.2   400  ARG400      0.2260
     92  O         18.5740    2.7710  -12.7330 O.2   400  ARG400     -0.2867
     93  CB        20.0900    5.4960  -13.0560 C.3   400  ARG400      0.0307
     94  CG        18.9360    6.0220  -13.8990 C.3   400  ARG400      0.0489
     95  CD        19.4120    6.9460  -15.0010 C.3   400  ARG400      0.2205
     96  NE        18.5150    6.9280  -16.1540 N.pl3 400  ARG400     -0.0865
     97  CZ        18.6810    6.1560  -17.2260 C.cat 400  ARG400      0.5346
     98  NH1       19.7140    5.3260  -17.3110 N.pl3 400  ARG400      0.1354
     99  NH2       17.8080    6.2120  -18.2190 N.pl3 400  ARG400      0.1354
    100  N         14.0160    5.2450  -16.7140 N.3   403  ALA403     -0.1245
    101  CA        13.2560    6.4290  -17.1430 C.3   403  ALA403      0.1562
    102  C         13.1780    7.5430  -16.0920 C.2   403  ALA403      0.2260
    103  O         12.1930    8.2830  -16.0280 O.2   403  ALA403     -0.2867
    104  CB        11.8550    6.0350  -17.6380 C.3   403  ALA403      0.0290
@<TRIPOS>BOND
     1    14    12   am
     2    47    46    2
     3    44    45    1
     4    12    13    2
     5    12    11    1
     6    46    45    1
     7    11    10    1
     8    45    48    1
     9    10     7    1
    10    48    49    1
    11     4     3    2
    12    52    53    1
    13     1     2    1
    14    58    56    1
    15     7     6    1
    16     7     8    1
    17     3     6   am
    18     3     2    1
    19    49    51    1
    20    49    50    1
    21     9     8    2
    22     2     5    1
    23    56    53    1
    24    56    57    1
    25     8    15   am
    26    53    54    1
    27    55    54    2
    28    54    59   am
    29    15    16    1
    30    18    17    2
    31    16    17    1
    32    59    60    1
    33    17    19   am
    34    87    85   ar
    35    87    88   ar
    36    43    41   ar
    37    43    42   ar
    38    85    84   ar
    39    41    39   ar
    40    61    60    1
    41    61    62    2
    42    60    63    1
    43    19    20    1
    44    42    40   ar
    45    37    36    2
    46    39    40   ar
    47    39    38    1
    48    20    21    1
    49    38    35    1
    50    88    86   ar
    51    84    83    1
    52    84    86   ar
    53    80    79    1
    54    80    83    1
    55    80    81    1
    56    36    35    1
    57    63    64    1
    58    82    81    2
    59    32    33   ar
    60    32    30   ar
    61    33    31   ar
    62    21    22    2
    63    35    34    1
    64    64    65    1
    65    30    28   ar
    66    31    29   ar
    67    77    76    1
    68    99    97    1
    69    65    66   ar
    70    65    67   ar
    71    28    29   ar
    72    28    27    1
    73    76    78    1
    74    76    75    2
    75   104   101    1
    76    98    97    1
    77    97    96    2
    78   101   100    1
    79   101   102    1
    80    75    74    1
    81    74    73    1
    82    27    24    1
    83    24    23    1
    84    24    25    1
    85    96    95    1
    86   102   103    2
    87    73    72    1
    88    25    26    2
    89    72    69    1
    90    71    70    2
    91    95    94    1
    92    69    70    1
    93    69    68    1
    94    94    93    1
    95    93    90    1
    96    92    91    2
    97    91    90    1
    98    90    89    1
