@<TRIPOS>MOLECULE
tmp/3aeeC01.pdb
 87 84 0 0 0
SMALL
GASTEIGER

@<TRIPOS>ATOM
      1  N        -12.0650  -22.0120   58.4370 N.3    25  ILE25      -0.1245
      2  CA       -12.4560  -21.2450   59.6370 C.3    25  ILE25       0.1561
      3  C        -11.3220  -20.3900   60.1930 C.2    25  ILE25       0.2260
      4  O        -11.5580  -19.2830   60.6830 O.2    25  ILE25      -0.2867
      5  CB       -13.0710  -22.1190   60.7950 C.3    25  ILE25       0.0252
      6  CG1      -12.0240  -22.9830   61.5280 C.3    25  ILE25       0.0019
      7  CG2      -14.2890  -22.8880   60.3150 C.3    25  ILE25       0.0019
      8  CD1      -11.2920  -24.0110   60.6980 C.3    25  ILE25       0.0001
      9  N        -15.5230  -13.5050   60.4640 N.3    30  TRP30      -0.1241
     10  CA       -16.8190  -13.8410   61.0210 C.3    30  TRP30       0.1605
     11  C        -17.8660  -12.7480   60.8710 C.2    30  TRP30       0.2264
     12  O        -17.6550  -11.6050   61.2770 O.2    30  TRP30      -0.2867
     13  CB       -16.6470  -14.2510   62.4850 C.3    30  TRP30       0.0550
     14  CG       -16.0660  -15.6270   62.6110 C.ar   30  TRP30       0.0003
     15  CD1      -14.7650  -16.0020   62.3890 C.ar   30  TRP30       0.0946
     16  CD2      -16.7730  -16.8190   62.9640 C.ar   30  TRP30       0.0152
     17  NE1      -14.6230  -17.3550   62.5880 N.ar   30  TRP30      -0.2442
     18  CE2      -15.8380  -17.8810   62.9420 C.ar   30  TRP30       0.0810
     19  CE3      -18.1030  -17.0910   63.3060 C.ar   30  TRP30       0.0012
     20  CZ2      -16.1930  -19.1940   63.2500 C.ar   30  TRP30       0.0191
     21  CZ3      -18.4550  -18.3940   63.6110 C.ar   30  TRP30       0.0001
     22  CH2      -17.5020  -19.4310   63.5820 C.ar   30  TRP30       0.0015
     23  N        -23.3300  -15.6430   60.4270 N.3    34  MET34      -0.1245
     24  CA       -22.5860  -16.9010   60.5470 C.3    34  MET34       0.1570
     25  C        -22.4200  -17.3420   61.9990 C.2    34  MET34       0.2261
     26  O        -22.5120  -18.5330   62.3140 O.2    34  MET34      -0.2867
     27  CB       -21.2100  -16.7870   59.8870 C.3    34  MET34       0.0387
     28  CG       -20.5970  -18.1280   59.4730 C.3    34  MET34       0.0595
     29  SD       -18.7890  -18.1870   59.5530 S.3    34  MET34      -0.1393
     30  CE       -18.3240  -16.5970   58.8640 C.3    34  MET34       0.0692
     31  N        -25.7060  -18.6130   63.3440 N.3    37  SER37      -0.1202
     32  CA       -26.0680  -19.9740   62.9710 C.3    37  SER37       0.2020
     33  C        -25.4120  -21.0010   63.8940 C.2    37  SER37       0.2618
     34  O        -26.0620  -21.9640   64.3010 O.2    37  SER37      -0.2717
     35  CB       -25.7360  -20.2670   61.5090 C.3    37  SER37       0.2103
     36  OG       -26.5270  -21.3480   61.0420 O.3    37  SER37      -0.2182
     37  N        -24.1350  -20.7920   64.2260 N.am   38  ILE38      -0.1979
     38  CA       -23.4300  -21.6730   65.1670 C.3    38  ILE38       0.1595
     39  C        -24.1910  -21.7400   66.4870 C.2    38  ILE38       0.2287
     40  O        -24.3260  -22.8090   67.0770 O.2    38  ILE38      -0.2864
     41  CB       -21.9350  -21.2570   65.4320 C.3    38  ILE38       0.0276
     42  CG1      -21.8380  -19.9530   66.2400 C.3    38  ILE38       0.0022
     43  CG2      -21.1620  -21.1380   64.1390 C.3    38  ILE38       0.0022
     44  CD1      -20.6450  -19.8590   67.2050 C.3    38  ILE38       0.0001
     45  N        -27.3830  -21.2040   66.9860 N.3    40  HIS40      -0.1226
     46  CA       -28.5960  -21.9730   66.8400 C.3    40  HIS40       0.1752
     47  C        -28.3000  -23.4490   67.0870 C.2    40  HIS40       0.2596
     48  O        -29.0120  -24.1050   67.8410 O.2    40  HIS40      -0.2718
     49  CB       -29.2130  -21.7580   65.4710 C.3    40  HIS40       0.0759
     50  CG       -30.6890  -21.9450   65.4630 C.ar   40  HIS40       0.0818
     51  ND1      -31.5700  -20.8880   65.4650 N.ar   40  HIS40      -0.2268
     52  CD2      -31.4440  -23.0660   65.4930 C.ar   40  HIS40       0.1154
     53  CE1      -32.8060  -21.3490   65.4780 C.ar   40  HIS40       0.1986
     54  NE2      -32.7570  -22.6690   65.4980 N.ar   40  HIS40      -0.2212
     55  N        -27.2280  -23.9500   66.4770 N.am   41  ARG41      -0.1966
     56  CA       -26.7570  -25.3140   66.7150 C.3    41  ARG41       0.1729
     57  C        -26.2700  -25.5090   68.1450 C.2    41  ARG41       0.2616
     58  O        -26.5960  -26.5070   68.7840 O.2    41  ARG41      -0.2715
     59  CB       -25.6350  -25.6940   65.7470 C.3    41  ARG41       0.0348
     60  CG       -26.1140  -26.0360   64.3700 C.3    41  ARG41       0.0492
     61  CD       -25.4080  -27.2530   63.8230 C.3    41  ARG41       0.2205
     62  NE       -26.0010  -27.6470   62.5490 N.pl3  41  ARG41      -0.0865
     63  CZ       -25.5500  -28.6160   61.7570 C.cat  41  ARG41       0.5346
     64  NH1      -24.4840  -29.3280   62.0940 N.pl3  41  ARG41       0.1354
     65  NH2      -26.1740  -28.8750   60.6160 N.pl3  41  ARG41       0.1354
     66  N        -25.4760  -24.5670   68.6390 N.am   42  GLY42      -0.1955
     67  CA       -25.0090  -24.6180   70.0180 C.3    42  GLY42       0.1869
     68  C        -26.1780  -24.8180   70.9590 C.2    42  GLY42       0.2309
     69  O        -26.2020  -25.7780   71.7310 O.2    42  GLY42      -0.2863
     70  N        -28.5250  -28.1000   70.2800 N.3    45  ILE45      -0.1245
     71  CA       -27.9100  -29.3060   70.8260 C.3    45  ILE45       0.1561
     72  C        -28.0680  -29.3650   72.3480 C.2    45  ILE45       0.2260
     73  O        -28.5140  -30.3790   72.8930 O.2    45  ILE45      -0.2867
     74  CB       -26.4170  -29.4060   70.3920 C.3    45  ILE45       0.0252
     75  CG1      -26.3350  -29.9110   68.9470 C.3    45  ILE45       0.0019
     76  CG2      -25.6020  -30.2940   71.3440 C.3    45  ILE45       0.0019
     77  CD1      -25.0670  -29.5340   68.2320 C.3    45  ILE45       0.0001
     78  N        -35.5040  -18.3210   61.2770 N.3   103  HIS103     -0.1241
     79  CA       -35.3200  -19.4220   60.3330 C.3   103  HIS103      0.1621
     80  C        -36.6230  -19.7620   59.6320 C.2   103  HIS103      0.2264
     81  O        -36.6380  -19.9960   58.4250 O.2   103  HIS103     -0.2867
     82  CB       -34.7570  -20.6640   61.0230 C.3   103  HIS103      0.0745
     83  CG       -33.2840  -20.8410   60.8350 C.ar  103  HIS103      0.0817
     84  ND1      -32.3890  -20.8030   61.8820 N.ar  103  HIS103     -0.2268
     85  CD2      -32.5470  -21.0540   59.7190 C.ar  103  HIS103      0.1154
     86  CE1      -31.1630  -20.9850   61.4210 C.ar  103  HIS103      0.1986
     87  NE2      -31.2310  -21.1360   60.1110 N.ar  103  HIS103     -0.2212
@<TRIPOS>BOND
     1    81    80    2
     2     1     2    1
     3    30    29    1
     4    28    29    1
     5    28    27    1
     6    80    79    1
     7     2     3    1
     8     2     5    1
     9    85    87   ar
    10    85    83   ar
    11    27    24    1
    12    87    86   ar
    13     3     4    2
    14     7     5    1
    15    79    82    1
    16    79    78    1
    17    23    24    1
    18     9    10    1
    19    24    25    1
    20    65    63    1
    21     8     6    1
    22     5     6    1
    23    83    82    1
    24    83    84   ar
    25    11    10    1
    26    11    12    2
    27    10    13    1
    28    36    35    1
    29    86    84   ar
    30    35    32    1
    31    63    64    1
    32    63    62    2
    33    25    26    2
    34    15    17   ar
    35    15    14   ar
    36    13    14    1
    37    62    61    1
    38    17    18   ar
    39    14    16   ar
    40    18    16   ar
    41    18    20   ar
    42    16    19   ar
    43    32    31    1
    44    32    33    1
    45    20    22   ar
    46    19    21   ar
    47    22    21   ar
    48    61    60    1
    49    33    37   am
    50    33    34    2
    51    43    41    1
    52    37    38    1
    53    60    59    1
    54    38    41    1
    55    38    39    1
    56    41    42    1
    57    50    51   ar
    58    50    49    1
    59    50    52   ar
    60    51    53   ar
    61    49    46    1
    62    53    54   ar
    63    52    54   ar
    64    59    56    1
    65    42    44    1
    66    55    56    1
    67    55    47   am
    68    39    40    2
    69    56    57    1
    70    46    45    1
    71    46    47    1
    72    47    48    2
    73    57    66   am
    74    57    58    2
    75    77    75    1
    76    66    67    1
    77    75    74    1
    78    67    68    1
    79    70    71    1
    80    74    71    1
    81    74    76    1
    82    71    72    1
    83    68    69    2
    84    72    73    2
