@<TRIPOS>MOLECULE
tmp/3aejC00.pdb
 77 73 0 0 0
SMALL
GASTEIGER

@<TRIPOS>ATOM
      1  N         35.8050  -14.1210   46.9710 N.3   106  TYR106     -0.1227
      2  CA        34.7130  -14.5200   46.0940 C.3   106  TYR106      0.1736
      3  C         35.2540  -15.3690   44.9400 C.2   106  TYR106      0.2596
      4  O         36.3300  -15.0870   44.4060 O.2   106  TYR106     -0.2718
      5  CB        33.9690  -13.2860   45.5690 C.3   106  TYR106      0.0548
      6  CG        33.0070  -13.5870   44.4430 C.ar  106  TYR106     -0.0200
      7  CD1       31.8640  -14.3550   44.6630 C.ar  106  TYR106     -0.0009
      8  CD2       33.2450  -13.1110   43.1540 C.ar  106  TYR106     -0.0009
      9  CE1       30.9860  -14.6410   43.6300 C.ar  106  TYR106      0.0417
     10  CE2       32.3670  -13.3900   42.1130 C.ar  106  TYR106      0.0417
     11  CZ        31.2410  -14.1560   42.3580 C.ar  106  TYR106      0.1957
     12  OH        30.3680  -14.4390   41.3340 O.3   106  TYR106     -0.2866
     13  N         34.5020  -16.4060   44.5740 N.am  107  GLY107     -0.1942
     14  CA        34.9160  -17.3870   43.5680 C.3   107  GLY107      0.2014
     15  C         35.5600  -16.8410   42.3060 C.2   107  GLY107      0.2639
     16  O         36.6520  -17.2730   41.9290 O.2   107  GLY107     -0.2714
     17  N         34.8870  -15.8910   41.6550 N.am  108  CYS108     -0.1967
     18  CA        35.3710  -15.3280   40.3890 C.3   108  CYS108      0.1712
     19  C         36.5410  -14.3570   40.5640 C.2   108  CYS108      0.2296
     20  O         37.3230  -14.1560   39.6330 O.2   108  CYS108     -0.2864
     21  CB        34.2320  -14.6800   39.5920 C.3   108  CYS108      0.0983
     22  SG        32.9960  -15.8550   38.9660 S.3   108  CYS108     -0.0798
     23  N         33.9710  -13.7070   51.6530 N.3   153  ASN153     -0.1240
     24  CA        33.0060  -14.5950   51.0170 C.3   153  ASN153      0.1653
     25  C         33.6420  -15.9780   50.8520 C.2   153  ASN153      0.2266
     26  O         34.6710  -16.1030   50.1820 O.2   153  ASN153     -0.2867
     27  CB        32.6160  -14.0170   49.6510 C.3   153  ASN153      0.1155
     28  CG        31.3830  -14.6760   49.0440 C.2   153  ASN153      0.2627
     29  OD1       30.8870  -15.6950   49.5310 O.2   153  ASN153     -0.2716
     30  ND2       30.8840  -14.0850   47.9630 N.am  153  ASN153     -0.0877
     31  N         22.0500  -18.8680   44.2530 N.3   328  VAL328     -0.1231
     32  CA        23.2730  -18.1090   44.5320 C.3   328  VAL328      0.1692
     33  C         22.9720  -16.6100   44.6470 C.2   328  VAL328      0.2593
     34  O         21.8110  -16.1990   44.5750 O.2   328  VAL328     -0.2718
     35  CB        24.4140  -18.3830   43.4990 C.3   328  VAL328      0.0266
     36  CG1       24.8480  -19.8430   43.5420 C.3   328  VAL328      0.0020
     37  CG2       24.0070  -17.9730   42.0880 C.3   328  VAL328      0.0020
     38  N         24.0270  -15.8120   44.8230 N.am  329  SER329     -0.1938
     39  CA        23.9360  -14.3700   45.0930 C.3   329  SER329      0.2055
     40  C         23.5000  -14.0980   46.5340 C.2   329  SER329      0.2642
     41  O         23.2390  -15.0280   47.2950 O.2   329  SER329     -0.2714
     42  CB        23.0360  -13.6490   44.0800 C.3   329  SER329      0.2130
     43  OG        23.0970  -12.2450   44.2500 O.3   329  SER329     -0.2179
     44  N         23.4360  -12.8210   46.9030 N.am  330  LEU330     -0.1977
     45  CA        23.1670  -12.4150   48.2820 C.3   330  LEU330      0.1596
     46  C         22.7460  -10.9490   48.3700 C.2   330  LEU330      0.2287
     47  O         22.7210  -10.2370   47.3630 O.2   330  LEU330     -0.2864
     48  CB        24.4110  -12.6300   49.1540 C.3   330  LEU330      0.0297
     49  CG        25.6880  -11.9040   48.7160 C.3   330  LEU330      0.0022
     50  CD1       26.3490  -11.2180   49.8980 C.3   330  LEU330      0.0001
     51  CD2       26.6520  -12.8490   48.0020 C.3   330  LEU330      0.0001
     52  N         28.5960  -24.9130   44.5060 N.3   343  MET343     -0.1230
     53  CA        28.0030  -23.8170   43.7350 C.3   343  MET343      0.1702
     54  C         28.9510  -22.6240   43.5510 C.2   343  MET343      0.2593
     55  O         29.6580  -22.5520   42.5440 O.2   343  MET343     -0.2718
     56  CB        26.6520  -23.3880   44.3310 C.3   343  MET343      0.0401
     57  CG        25.5600  -24.4560   44.2500 C.3   343  MET343      0.0596
     58  SD        24.1460  -24.1380   45.3280 S.3   343  MET343     -0.1393
     59  CE        23.1950  -25.6370   45.0870 C.3   343  MET343      0.0692
     60  N         28.9760  -21.7050   44.5190 N.am  344  THR344     -0.1953
     61  CA        29.7720  -20.4710   44.4140 C.3   344  THR344      0.1897
     62  C         31.2830  -20.7030   44.3670 C.2   344  THR344      0.2313
     63  O         32.0150  -19.9380   43.7310 O.2   344  THR344     -0.2863
     64  CB        29.4620  -19.4630   45.5510 C.3   344  THR344      0.1794
     65  OG1       29.5390  -20.1190   46.8240 O.3   344  THR344     -0.2208
     66  CG2       28.0820  -18.8620   45.3740 C.3   344  THR344      0.0378
     67  N         25.7360  -21.5730   53.1870 N.3   364  ARG364     -0.1245
     68  CA        25.7310  -20.1170   53.2850 C.3   364  ARG364      0.1563
     69  C         24.3140  -19.5730   53.1770 C.2   364  ARG364      0.2260
     70  O         23.5660  -19.9220   52.2610 O.2   364  ARG364     -0.2867
     71  CB        26.6320  -19.4740   52.2300 C.3   364  ARG364      0.0307
     72  CG        26.9680  -18.0180   52.5380 C.3   364  ARG364      0.0489
     73  CD        27.5680  -17.3100   51.3430 C.3   364  ARG364      0.2205
     74  NE        26.5750  -17.0440   50.3080 N.pl3 364  ARG364     -0.0865
     75  CZ        26.8560  -16.5770   49.0950 C.cat 364  ARG364      0.5346
     76  NH1       28.1100  -16.3160   48.7440 N.pl3 364  ARG364      0.1354
     77  NH2       25.8740  -16.3720   48.2290 N.pl3 364  ARG364      0.1354
@<TRIPOS>BOND
     1    22    21    1
     2    21    18    1
     3    20    19    2
     4    18    19    1
     5    18    17    1
     6    12    11    1
     7    17    15   am
     8    16    15    2
     9    37    35    1
    10    10    11   ar
    11    10     8   ar
    12    15    14    1
    13    11     9   ar
    14    55    54    2
    15     8     6   ar
    16    35    36    1
    17    35    32    1
    18    54    53    1
    19    54    60   am
    20    14    13    1
    21     9     7   ar
    22    63    62    2
    23    53    56    1
    24    53    52    1
    25    42    43    1
    26    42    39    1
    27    57    56    1
    28    57    58    1
    29    31    32    1
    30    62    61    1
    31     4     3    2
    32    61    60    1
    33    61    64    1
    34     6     7   ar
    35     6     5    1
    36    32    33    1
    37    13     3   am
    38    34    33    2
    39    33    38   am
    40    38    39    1
    41     3     2    1
    42    59    58    1
    43    39    40    1
    44    66    64    1
    45    64    65    1
    46     5     2    1
    47     2     1    1
    48    40    44   am
    49    40    41    2
    50    44    45    1
    51    47    46    2
    52    30    28   am
    53    51    49    1
    54    77    75    1
    55    45    46    1
    56    45    48    1
    57    49    48    1
    58    49    50    1
    59    76    75    1
    60    28    29    2
    61    28    27    1
    62    75    74    2
    63    27    24    1
    64    26    25    2
    65    74    73    1
    66    25    24    1
    67    24    23    1
    68    73    72    1
    69    71    72    1
    70    71    68    1
    71    70    69    2
    72    69    68    1
    73    67    68    1
