@<TRIPOS>MOLECULE
tmp/3aejA00.pdb
 170 158 0 0 0
SMALL
GASTEIGER

@<TRIPOS>ATOM
      1  N         -3.3620    4.9390   36.3960 N.3    80  SER80      -0.1202
      2  CA        -3.3850    6.0070   37.3890 C.3    80  SER80       0.2020
      3  C         -4.4060    5.6740   38.4670 C.2    80  SER80       0.2619
      4  O         -5.2580    4.8020   38.2740 O.2    80  SER80      -0.2717
      5  CB        -3.7440    7.3460   36.7390 C.3    80  SER80       0.2103
      6  OG        -5.1100    7.3810   36.3680 O.3    80  SER80      -0.2182
      7  N         -4.3130    6.3750   39.5970 N.am   81  GLY81      -0.1942
      8  CA        -5.3160    6.2950   40.6540 C.3    81  GLY81       0.2014
      9  C         -6.6770    6.7110   40.1300 C.2    81  GLY81       0.2638
     10  O         -7.6960    6.1200   40.4850 O.2    81  GLY81      -0.2714
     11  N         -6.6840    7.7250   39.2690 N.am   82  MET82      -0.1976
     12  CA        -7.9030    8.1810   38.6080 C.3    82  MET82       0.1605
     13  C         -8.4690    7.1260   37.6570 C.2    82  MET82       0.2287
     14  O         -9.6720    7.1000   37.3950 O.2    82  MET82      -0.2864
     15  CB        -7.6580    9.5040   37.8730 C.3    82  MET82       0.0413
     16  CG        -7.3830   10.6980   38.7930 C.3    82  MET82       0.0598
     17  SD        -8.5270   10.8490   40.1880 S.3    82  MET82      -0.1393
     18  CE       -10.1040   11.0590   39.3590 C.3    82  MET82       0.0692
     19  N        -10.2220    4.9550   40.2320 N.3    85  ILE85      -0.1245
     20  CA       -11.4220    5.6160   40.7560 C.3    85  ILE85       0.1561
     21  C        -12.5910    5.5490   39.7650 C.2    85  ILE85       0.2260
     22  O        -13.7160    5.2120   40.1490 O.2    85  ILE85      -0.2867
     23  CB       -11.1290    7.0750   41.1920 C.3    85  ILE85       0.0252
     24  CG1      -10.1570    7.0730   42.3770 C.3    85  ILE85       0.0019
     25  CG2      -12.4160    7.8030   41.5740 C.3    85  ILE85       0.0019
     26  CD1       -9.4740    8.4000   42.6500 C.3    85  ILE85       0.0001
     27  N         -9.9750   14.2310   47.0260 N.3   106  TYR106     -0.1241
     28  CA        -8.8940   14.6720   46.1520 C.3   106  TYR106      0.1605
     29  C         -9.4540   15.4960   44.9900 C.2   106  TYR106      0.2264
     30  O        -10.5400   15.2060   44.4820 O.2   106  TYR106     -0.2867
     31  CB        -8.0760   13.4760   45.6420 C.3   106  TYR106      0.0534
     32  CG        -7.1800   13.8160   44.4720 C.ar  106  TYR106     -0.0201
     33  CD1       -6.1590   14.7640   44.6010 C.ar  106  TYR106     -0.0009
     34  CD2       -7.3590   13.2020   43.2340 C.ar  106  TYR106     -0.0009
     35  CE1       -5.3480   15.0950   43.5220 C.ar  106  TYR106      0.0417
     36  CE2       -6.5460   13.5190   42.1540 C.ar  106  TYR106      0.0417
     37  CZ        -5.5420   14.4620   42.3040 C.ar  106  TYR106      0.1957
     38  OH        -4.7350   14.7800   41.2350 O.3   106  TYR106     -0.2866
     39  N         -9.0870   15.9420   41.6880 N.3   108  CYS108     -0.1221
     40  CA        -9.5630   15.3610   40.4310 C.3   108  CYS108      0.1808
     41  C        -10.7140   14.3730   40.6250 C.2   108  CYS108      0.2601
     42  O        -11.4850   14.1220   39.6940 O.2   108  CYS108     -0.2717
     43  CB        -8.4100   14.7300   39.6420 C.3   108  CYS108      0.0970
     44  SG        -7.1410   15.9210   39.1220 S.3   108  CYS108     -0.0800
     45  N        -10.8280   13.8140   41.8300 N.am  109  THR109     -0.1953
     46  CA       -11.9800   12.9860   42.1880 C.3   109  THR109      0.1897
     47  C        -13.2340   13.8590   42.2310 C.2   109  THR109      0.2313
     48  O        -14.2990   13.4540   41.7580 O.2   109  THR109     -0.2863
     49  CB       -11.7790   12.2610   43.5380 C.3   109  THR109      0.1794
     50  OG1      -10.5260   11.5650   43.5300 O.3   109  THR109     -0.2208
     51  CG2      -12.9020   11.2600   43.7920 C.3   109  THR109      0.0378
     52  N        -13.2050    8.9200   51.3370 N.3   149  GLU149     -0.1245
     53  CA       -11.7720    9.0930   51.5510 C.3   149  GLU149      0.1567
     54  C        -11.5650    9.3500   53.0360 C.2   149  GLU149      0.2260
     55  O        -12.1400   10.2920   53.5880 O.2   149  GLU149     -0.2867
     56  CB       -11.2330   10.2810   50.7550 C.3   149  GLU149      0.0388
     57  CG       -10.8000    9.9630   49.3380 C.3   149  GLU149      0.1160
     58  CD       -10.1000   11.1340   48.6600 C.2   149  GLU149      0.3649
     59  OE1       -9.2210   11.7650   49.2910 O.co2 149  GLU149     -0.2457
     60  OE2      -10.4300   11.4190   47.4870 O.co2 149  GLU149     -0.2457
     61  N         -8.0530   13.8170   51.7270 N.3   153  ASN153     -0.1240
     62  CA        -7.0700   14.6970   51.1050 C.3   153  ASN153      0.1653
     63  C         -7.6900   16.0860   50.9380 C.2   153  ASN153      0.2266
     64  O         -8.7190   16.2180   50.2720 O.2   153  ASN153     -0.2867
     65  CB        -6.6640   14.1200   49.7420 C.3   153  ASN153      0.1155
     66  CG        -5.4370   14.7950   49.1410 C.2   153  ASN153      0.2627
     67  OD1       -4.9720   15.8310   49.6140 O.2   153  ASN153     -0.2716
     68  ND2       -4.9110   14.2000   48.0780 N.am  153  ASN153     -0.0877
     69  N        -11.2950    5.0080   49.2650 N.3   178  ASP178     -0.1239
     70  CA        -9.9710    5.3680   48.7730 C.3   178  ASP178      0.1674
     71  C         -9.0410    5.4550   49.9780 C.2   178  ASP178      0.2266
     72  O         -9.2010    6.3270   50.8390 O.2   178  ASP178     -0.2867
     73  CB       -10.0240    6.7050   48.0200 C.3   178  ASP178      0.1410
     74  CG        -8.7050    7.0620   47.3350 C.2   178  ASP178      0.3668
     75  OD1       -7.6290    6.6370   47.7990 O.co2 178  ASP178     -0.2456
     76  OD2       -8.7480    7.7900   46.3230 O.co2 178  ASP178     -0.2456
     77  N         -5.5760    5.6400   49.8520 N.3   180  THR180     -0.1203
     78  CA        -4.2610    6.1030   49.3980 C.3   180  THR180      0.1994
     79  C         -3.4220    6.7290   50.5180 C.2   180  THR180      0.2617
     80  O         -2.2410    6.4090   50.6590 O.2   180  THR180     -0.2717
     81  CB        -4.3990    7.1110   48.2230 C.3   180  THR180      0.1784
     82  OG1       -5.1060    6.4960   47.1380 O.3   180  THR180     -0.2211
     83  CG2       -3.0320    7.5770   47.7300 C.3   180  THR180      0.0376
     84  N         -4.0460    7.6040   51.3080 N.am  181  PHE181     -0.1975
     85  CA        -3.3760    8.3580   52.3730 C.3   181  PHE181      0.1639
     86  C         -2.7610    7.5180   53.4930 C.2   181  PHE181      0.2290
     87  O         -1.8360    7.9690   54.1690 O.2   181  PHE181     -0.2864
     88  CB        -4.3520    9.3670   52.9860 C.3   181  PHE181      0.0560
     89  CG        -4.0430   10.8050   52.6590 C.ar  181  PHE181     -0.0200
     90  CD1       -3.8130   11.2120   51.3460 C.ar  181  PHE181     -0.0042
     91  CD2       -4.0090   11.7600   53.6700 C.ar  181  PHE181     -0.0042
     92  CE1       -3.5380   12.5430   51.0490 C.ar  181  PHE181     -0.0003
     93  CE2       -3.7340   13.0940   53.3830 C.ar  181  PHE181     -0.0003
     94  CZ        -3.5000   13.4860   52.0690 C.ar  181  PHE181     -0.0000
     95  N         -4.2450    5.0700   44.9000 N.3   200  SER200     -0.1217
     96  CA        -3.3020    5.6240   43.9560 C.3   200  SER200      0.1889
     97  C         -1.9540    5.0170   44.3250 C.2   200  SER200      0.2288
     98  O         -1.3440    5.3920   45.3310 O.2   200  SER200     -0.2866
     99  CB        -3.2600    7.1490   44.0510 C.3   200  SER200      0.2089
    100  OG        -2.2670    7.6810   43.1960 O.3   200  SER200     -0.2183
    101  N          0.6530    5.4420   42.8140 N.3   202  SER202     -0.1202
    102  CA         1.6060    6.5300   42.6070 C.3   202  SER202      0.2020
    103  C          2.2060    7.0520   43.9120 C.2   202  SER202      0.2618
    104  O          3.2970    7.6270   43.9170 O.2   202  SER202     -0.2717
    105  CB         0.9290    7.6850   41.8700 C.3   202  SER202      0.2103
    106  OG         0.0620    7.2090   40.8580 O.3   202  SER202     -0.2182
    107  N          1.4920    6.8420   45.0150 N.am  203  LYS203     -0.1979
    108  CA         1.9080    7.3650   46.3110 C.3   203  LYS203      0.1596
    109  C          2.7020    6.3620   47.1470 C.2   203  LYS203      0.2287
    110  O          3.8090    5.9870   46.7580 O.2   203  LYS203     -0.2864
    111  CB         0.7110    7.9460   47.0730 C.3   203  LYS203      0.0298
    112  CG         0.3290    9.3450   46.6050 C.3   203  LYS203      0.0038
    113  CD        -0.6210    9.3260   45.4250 C.3   203  LYS203      0.0206
    114  CE        -0.1280   10.2010   44.2850 C.3   203  LYS203      0.1093
    115  NZ         0.0280   11.6280   44.6550 N.3   203  LYS203     -0.1314
    116  N          3.2940    6.5560   37.9490 N.3   212  ILE212     -0.1245
    117  CA         1.8800    6.8800   38.1190 C.3   212  ILE212      0.1561
    118  C          1.0990    5.5800   37.9600 C.2   212  ILE212      0.2260
    119  O          1.2110    4.9060   36.9320 O.2   212  ILE212     -0.2867
    120  CB         1.3690    7.8990   37.0660 C.3   212  ILE212      0.0252
    121  CG1        2.2800    9.1340   36.9830 C.3   212  ILE212      0.0019
    122  CG2       -0.0970    8.2700   37.3290 C.3   212  ILE212      0.0019
    123  CD1        2.1070   10.1470   38.0920 C.3   212  ILE212      0.0001
    124  N          3.8630   18.8700   44.2290 N.3   329  VAL329     -0.1231
    125  CA         2.6240   18.1380   44.5060 C.3   329  VAL329      0.1692
    126  C          2.9090   16.6380   44.6280 C.2   329  VAL329      0.2593
    127  O          4.0620   16.2110   44.5200 O.2   329  VAL329     -0.2718
    128  CB         1.4930   18.4230   43.4660 C.3   329  VAL329      0.0266
    129  CG1        1.1210   19.9020   43.4590 C.3   329  VAL329      0.0020
    130  CG2        1.8770   17.9430   42.0690 C.3   329  VAL329      0.0020
    131  N          1.8510   15.8560   44.8510 N.am  330  SER330     -0.1938
    132  CA         1.9380   14.4190   45.1380 C.3   330  SER330      0.2055
    133  C          2.3890   14.1630   46.5760 C.2   330  SER330      0.2642
    134  O          2.7130   15.1000   47.3080 O.2   330  SER330     -0.2714
    135  CB         2.8280   13.6810   44.1320 C.3   330  SER330      0.2130
    136  OG         2.7470   12.2810   44.3190 O.3   330  SER330     -0.2179
    137  N          2.3920   12.8950   46.9780 N.am  331  LEU331     -0.1977
    138  CA         2.7220   12.5080   48.3500 C.3   331  LEU331      0.1596
    139  C          3.1930   11.0570   48.4290 C.2   331  LEU331      0.2287
    140  O          3.3130   10.3730   47.4060 O.2   331  LEU331     -0.2864
    141  CB         1.5070   12.6930   49.2670 C.3   331  LEU331      0.0297
    142  CG         0.2040   12.0150   48.8250 C.3   331  LEU331      0.0022
    143  CD1       -0.3830   11.1630   49.9390 C.3   331  LEU331      0.0001
    144  CD2       -0.8030   13.0310   48.2970 C.3   331  LEU331      0.0001
    145  N         -2.6980   24.9180   44.5930 N.3   344  MET344     -0.1230
    146  CA        -2.1340   23.7870   43.8520 C.3   344  MET344      0.1702
    147  C         -3.1130   22.6190   43.6680 C.2   344  MET344      0.2593
    148  O         -3.9100   22.6270   42.7290 O.2   344  MET344     -0.2718
    149  CB        -0.8000   23.3380   44.4690 C.3   344  MET344      0.0401
    150  CG         0.3100   24.3810   44.3520 C.3   344  MET344      0.0596
    151  SD         1.7550   24.0540   45.3810 S.3   344  MET344     -0.1393
    152  CE         2.7680   25.4820   44.9970 C.3   344  MET344      0.0692
    153  N         -3.0590   21.6330   44.5650 N.am  345  THR345     -0.1953
    154  CA        -3.8460   20.3960   44.4300 C.3   345  THR345      0.1897
    155  C         -5.3620   20.6010   44.4490 C.2   345  THR345      0.2313
    156  O         -6.1070   19.8140   43.8590 O.2   345  THR345     -0.2863
    157  CB        -3.4690   19.3400   45.5000 C.3   345  THR345      0.1794
    158  OG1       -3.5080   19.9310   46.8060 O.3   345  THR345     -0.2208
    159  CG2       -2.0820   18.7760   45.2360 C.3   345  THR345      0.0378
    160  N          0.2060   21.5790   53.2110 N.3   365  ARG365     -0.1245
    161  CA         0.2210   20.1220   53.3090 C.3   365  ARG365      0.1563
    162  C          1.6390   19.5820   53.2040 C.2   365  ARG365      0.2260
    163  O          2.3720   19.9050   52.2670 O.2   365  ARG365     -0.2867
    164  CB        -0.6780   19.4740   52.2520 C.3   365  ARG365      0.0307
    165  CG        -0.9750   18.0050   52.5310 C.3   365  ARG365      0.0489
    166  CD        -1.6270   17.3210   51.3430 C.3   365  ARG365      0.2205
    167  NE        -0.6870   17.1130   50.2460 N.pl3 365  ARG365     -0.0865
    168  CZ        -1.0260   16.7030   49.0270 C.cat 365  ARG365      0.5346
    169  NH1       -2.2960   16.4520   48.7260 N.pl3 365  ARG365      0.1354
    170  NH2       -0.0890   16.5510   48.1010 N.pl3 365  ARG365      0.1354
@<TRIPOS>BOND
     1     6     5    1
     2     1     2    1
     3     5     2    1
     4   119   118    2
     5   121   120    1
     6   121   123    1
     7   120   122    1
     8   120   117    1
     9     2     3    1
    10    14    13    2
    11    13    12    1
    12    15    12    1
    13    15    16    1
    14   116   117    1
    15   118   117    1
    16     4     3    2
    17     3     7   am
    18    12    11    1
    19    16    17    1
    20    44    43    1
    21    11     9   am
    22    18    17    1
    23     7     8    1
    24    43    40    1
    25    42    41    2
    26    21    22    2
    27    21    20    1
    28     9    10    2
    29     9     8    1
    30    19    20    1
    31    40    41    1
    32    40    39    1
    33    41    45   am
    34    20    23    1
    35   106   105    1
    36    23    25    1
    37    23    24    1
    38    38    37    1
    39    48    47    2
    40    45    46    1
    41   105   102    1
    42   130   128    1
    43    36    37   ar
    44    36    34   ar
    45    46    47    1
    46    46    49    1
    47    37    35   ar
    48    24    26    1
    49   102   101    1
    50   102   103    1
    51   148   147    2
    52   100    99    1
    53    34    32   ar
    54   129   128    1
    55   128   125    1
    56    35    33   ar
    57    50    49    1
    58    49    51    1
    59   147   146    1
    60   147   153   am
    61   146   149    1
    62   146   145    1
    63   156   155    2
    64   103   104    2
    65   103   107   am
    66    96    99    1
    67    96    97    1
    68    96    95    1
    69   135   136    1
    70   135   132    1
    71   124   125    1
    72   114   115    1
    73   114   113    1
    74    97    98    2
    75   150   149    1
    76   150   151    1
    77   154   155    1
    78   154   153    1
    79   154   157    1
    80    32    33   ar
    81    32    31    1
    82    30    29    2
    83   125   126    1
    84   127   126    2
    85   126   131   am
    86   131   132    1
    87    29    28    1
    88   152   151    1
    89   107   108    1
    90   132   133    1
    91   159   157    1
    92   113   112    1
    93   157   158    1
    94    31    28    1
    95    28    27    1
    96   108   111    1
    97   108   109    1
    98    76    74   ar
    99   133   137   am
   100   133   134    2
   101   112   111    1
   102   110   109    2
   103   137   138    1
   104    82    81    1
   105    74    75   ar
   106    74    73    1
   107   140   139    2
   108    60    58   ar
   109    83    81    1
   110    73    70    1
   111    68    66   am
   112   170   168    1
   113    81    78    1
   114   144   142    1
   115   138   139    1
   116   138   141    1
   117    58    59   ar
   118    58    57    1
   119   169   168    1
   120    70    69    1
   121    70    71    1
   122   142   141    1
   123   142   143    1
   124   168   167    2
   125    66    67    2
   126    66    65    1
   127    57    56    1
   128    78    77    1
   129    78    79    1
   130    65    62    1
   131    71    72    2
   132   167   166    1
   133    64    63    2
   134    79    80    2
   135    79    84   am
   136    56    53    1
   137    63    62    1
   138    92    90   ar
   139    92    94   ar
   140    62    61    1
   141    84    85    1
   142    52    53    1
   143   166   165    1
   144    90    89   ar
   145    53    54    1
   146    94    93   ar
   147   164   165    1
   148   164   161    1
   149   163   162    2
   150    85    88    1
   151    85    86    1
   152    89    88    1
   153    89    91   ar
   154    54    55    2
   155   162   161    1
   156   160   161    1
   157    93    91   ar
   158    86    87    2
