@<TRIPOS>MOLECULE
tmp/3aekA00.pdb
 125 121 0 0 0
SMALL
GASTEIGER

@<TRIPOS>ATOM
      1  N         60.6810   47.9060  104.6640 N.3    19  PHE19      -0.1241
      2  CA        61.0550   47.0420  105.7970 C.3    19  PHE19       0.1605
      3  C         62.2390   46.1650  105.4400 C.2    19  PHE19       0.2264
      4  O         62.3950   45.7730  104.2810 O.2    19  PHE19      -0.2867
      5  CB        59.9080   46.1010  106.1850 C.3    19  PHE19       0.0534
      6  CG        58.7760   46.7650  106.9240 C.ar   19  PHE19      -0.0203
      7  CD1       58.9960   47.4080  108.1390 C.ar   19  PHE19      -0.0042
      8  CD2       57.4800   46.7040  106.4190 C.ar   19  PHE19      -0.0042
      9  CE1       57.9500   47.9990  108.8360 C.ar   19  PHE19      -0.0003
     10  CE2       56.4250   47.2940  107.0980 C.ar   19  PHE19      -0.0003
     11  CZ        56.6610   47.9460  108.3200 C.ar   19  PHE19      -0.0000
     12  N         61.1140   41.3820  109.2940 N.3    23  THR23      -0.1218
     13  CA        59.6580   41.4960  109.4660 C.3    23  THR23       0.1862
     14  C         58.9190   40.2420  109.0320 C.2    23  THR23       0.2287
     15  O         57.7820   40.0290  109.4470 O.2    23  THR23      -0.2866
     16  CB        59.0920   42.6830  108.6630 C.3    23  THR23       0.1770
     17  OG1       59.5540   42.5970  107.3070 O.3    23  THR23      -0.2211
     18  CG2       59.5470   43.9930  109.2690 C.3    23  THR23       0.0375
     19  N         57.4760   37.6960  111.5420 N.3    26  VAL26      -0.1231
     20  CA        56.1390   37.9540  112.0820 C.3    26  VAL26       0.1692
     21  C         55.0900   36.9630  111.5500 C.2    26  VAL26       0.2592
     22  O         54.2790   36.4470  112.3220 O.2    26  VAL26      -0.2718
     23  CB        55.7000   39.4450  111.8620 C.3    26  VAL26       0.0266
     24  CG1       54.3280   39.7020  112.4440 C.3    26  VAL26       0.0020
     25  CG2       56.7170   40.4100  112.4860 C.3    26  VAL26       0.0020
     26  N         55.1150   36.6710  110.2510 N.am   27  TRP27      -0.1976
     27  CA        54.1810   35.6690  109.7040 C.3    27  TRP27       0.1640
     28  C         54.7530   34.2440  109.6480 C.2    27  TRP27       0.2290
     29  O         54.0260   33.2720  109.8380 O.2    27  TRP27      -0.2864
     30  CB        53.6090   36.1010  108.3470 C.3    27  TRP27       0.0576
     31  CG        54.5670   36.0820  107.1810 C.ar   27  TRP27       0.0006
     32  CD1       54.9290   34.9930  106.4320 C.ar   27  TRP27       0.0946
     33  CD2       55.2420   37.2080  106.6020 C.ar   27  TRP27       0.0152
     34  NE1       55.7960   35.3700  105.4340 N.ar   27  TRP27      -0.2442
     35  CE2       56.0080   36.7230  105.5150 C.ar   27  TRP27       0.0810
     36  CE3       55.2850   38.5820  106.9040 C.ar   27  TRP27       0.0012
     37  CZ2       56.8060   37.5600  104.7220 C.ar   27  TRP27       0.0191
     38  CZ3       56.0820   39.4160  106.1130 C.ar   27  TRP27       0.0001
     39  CH2       56.8340   38.8960  105.0360 C.ar   27  TRP27       0.0015
     40  N         61.9640   46.8470  116.2270 N.3    48  LEU48      -0.1245
     41  CA        61.2150   46.5700  115.0040 C.3    48  LEU48       0.1561
     42  C         60.2360   45.3880  115.1450 C.2    48  LEU48       0.2260
     43  O         59.0570   45.5000  114.7740 O.2    48  LEU48      -0.2867
     44  CB        62.1780   46.2840  113.8470 C.3    48  LEU48       0.0270
     45  CG        61.5260   45.5630  112.6570 C.3    48  LEU48       0.0019
     46  CD1       60.8180   46.5320  111.7310 C.3    48  LEU48       0.0001
     47  CD2       62.5190   44.7150  111.9050 C.3    48  LEU48       0.0001
     48  N         57.3130   46.1860  117.4500 N.3    51  ALA51      -0.1231
     49  CA        56.3940   47.1150  116.7820 C.3    51  ALA51       0.1694
     50  C         55.5480   46.4160  115.7090 C.2    51  ALA51       0.2591
     51  O         54.3150   46.5530  115.6860 O.2    51  ALA51      -0.2718
     52  CB        57.1630   48.3030  116.1910 C.3    51  ALA51       0.0304
     53  N         56.2250   45.6700  114.8350 N.am   52  ALA52      -0.1980
     54  CA        55.5900   44.8310  113.8120 C.3    52  ALA52       0.1597
     55  C         54.6100   43.7990  114.3820 C.2    52  ALA52       0.2287
     56  O         53.5050   43.6110  113.8460 O.2    52  ALA52      -0.2864
     57  CB        56.6600   44.1280  112.9860 C.3    52  ALA52       0.0319
     58  N         50.1350   42.8090  118.9760 N.3    55  VAL55      -0.1245
     59  CA        49.4890   41.8940  119.9260 C.3    55  VAL55       0.1561
     60  C         50.2480   40.5760  120.1350 C.2    55  VAL55       0.2260
     61  O         50.2820   40.0470  121.2540 O.2    55  VAL55      -0.2867
     62  CB        48.0260   41.5680  119.5130 C.3    55  VAL55       0.0252
     63  CG1       47.1430   41.4790  120.7500 C.3    55  VAL55       0.0019
     64  CG2       47.4820   42.6140  118.5360 C.3    55  VAL55       0.0019
     65  N         61.6430   43.2570  103.3110 N.3   144  PHE144     -0.1241
     66  CA        60.3220   42.7510  103.7170 C.3   144  PHE144      0.1605
     67  C         60.1920   41.2540  103.4280 C.2   144  PHE144      0.2264
     68  O         60.8500   40.4400  104.0810 O.2   144  PHE144     -0.2867
     69  CB        59.2150   43.5810  103.0380 C.3   144  PHE144      0.0534
     70  CG        57.8350   43.4230  103.6420 C.ar  144  PHE144     -0.0203
     71  CD1       56.7000   43.6240  102.8480 C.ar  144  PHE144     -0.0042
     72  CD2       57.6580   43.0950  104.9820 C.ar  144  PHE144     -0.0042
     73  CE1       55.4070   43.4920  103.3870 C.ar  144  PHE144     -0.0003
     74  CE2       56.3740   42.9550  105.5320 C.ar  144  PHE144     -0.0003
     75  CZ        55.2470   43.1560  104.7330 C.ar  144  PHE144     -0.0000
     76  N         52.8720   52.0290  105.6140 N.3   366  LEU366     -0.1245
     77  CA        52.2980   52.7440  106.7540 C.3   366  LEU366      0.1561
     78  C         53.0350   54.0520  107.0960 C.2   366  LEU366      0.2260
     79  O         52.4810   54.9330  107.7660 O.2   366  LEU366     -0.2867
     80  CB        52.2330   51.8040  107.9690 C.3   366  LEU366      0.0270
     81  CG        50.9200   51.1110  108.3650 C.3   366  LEU366      0.0019
     82  CD1       49.9510   50.9040  107.2250 C.3   366  LEU366      0.0001
     83  CD2       51.1550   49.8130  109.1300 C.3   366  LEU366      0.0001
     84  N         47.0460   50.6370  102.2500 N.3   381  TRP381     -0.1241
     85  CA        48.2610   50.2280  102.9410 C.3   381  TRP381      0.1605
     86  C         48.6950   48.8000  102.5710 C.2   381  TRP381      0.2264
     87  O         47.9180   47.8490  102.6550 O.2   381  TRP381     -0.2867
     88  CB        48.1400   50.4420  104.4570 C.3   381  TRP381      0.0550
     89  CG        47.0040   49.7210  105.1050 C.ar  381  TRP381      0.0003
     90  CD1       45.6790   50.0530  105.0540 C.ar  381  TRP381      0.0946
     91  CD2       47.0930   48.5490  105.9230 C.ar  381  TRP381      0.0152
     92  NE1       44.9340   49.1500  105.7740 N.ar  381  TRP381     -0.2442
     93  CE2       45.7750   48.2150  106.3190 C.ar  381  TRP381      0.0810
     94  CE3       48.1580   47.7460  106.3610 C.ar  381  TRP381      0.0012
     95  CZ2       45.4920   47.1110  107.1320 C.ar  381  TRP381      0.0191
     96  CZ3       47.8720   46.6390  107.1700 C.ar  381  TRP381      0.0001
     97  CH2       46.5520   46.3360  107.5420 C.ar  381  TRP381      0.0015
     98  N         50.8990   46.4480  103.6450 N.3   383  ILE383     -0.1231
     99  CA        51.1150   45.3320  104.5640 C.3   383  ILE383      0.1692
    100  C         49.9490   44.3490  104.5530 C.2   383  ILE383      0.2591
    101  O         50.1620   43.1440  104.6240 O.2   383  ILE383     -0.2718
    102  CB        51.3420   45.8070  106.0160 C.3   383  ILE383      0.0266
    103  CG1       52.5210   46.7850  106.0960 C.3   383  ILE383      0.0019
    104  CG2       51.5620   44.6100  106.9350 C.3   383  ILE383      0.0020
    105  CD1       52.8180   47.2770  107.5330 C.3   383  ILE383      0.0001
    106  N         48.7270   44.8690  104.4520 N.am  384  GLU384     -0.1979
    107  CA        47.5190   44.0450  104.4700 C.3   384  GLU384      0.1602
    108  C         47.5380   42.9390  103.4160 C.2   384  GLU384      0.2287
    109  O         46.9190   41.8940  103.6020 O.2   384  GLU384     -0.2864
    110  CB        46.2790   44.9120  104.2790 C.3   384  GLU384      0.0415
    111  CG        44.9990   44.2410  104.7380 C.3   384  GLU384      0.1163
    112  CD        43.8040   45.1750  104.7940 C.2   384  GLU384      0.3649
    113  OE1       43.8070   46.2350  104.1250 O.co2 384  GLU384     -0.2457
    114  OE2       42.8410   44.8340  105.5130 O.co2 384  GLU384     -0.2457
    115  N         49.0710   40.1240  104.8710 N.3   387  PHE387     -0.1241
    116  CA        48.3850   39.7030  106.1040 C.3   387  PHE387      0.1605
    117  C         46.8800   39.4180  105.9710 C.2   387  PHE387      0.2264
    118  O         46.1270   39.5250  106.9430 O.2   387  PHE387     -0.2867
    119  CB        48.6390   40.7140  107.2300 C.3   387  PHE387      0.0534
    120  CG        49.7500   40.3190  108.1420 C.ar  387  PHE387     -0.0203
    121  CD1       49.4770   39.6780  109.3490 C.ar  387  PHE387     -0.0042
    122  CD2       51.0670   40.5680  107.7980 C.ar  387  PHE387     -0.0042
    123  CE1       50.5120   39.2960  110.2040 C.ar  387  PHE387     -0.0003
    124  CE2       52.0990   40.1880  108.6380 C.ar  387  PHE387     -0.0003
    125  CZ        51.8230   39.5560  109.8470 C.ar  387  PHE387     -0.0000
@<TRIPOS>BOND
     1    84    85    1
     2    86    87    2
     3    86    85    1
     4    71    73   ar
     5    71    70   ar
     6    85    88    1
     7    69    70    1
     8    69    66    1
     9    65    66    1
    10    73    75   ar
    11   108   109    2
    12   108   107    1
    13    67    66    1
    14    67    68    2
    15    70    72   ar
    16    98    99    1
    17   113   112   ar
    18   110   107    1
    19   110   111    1
    20     4     3    2
    21   106   107    1
    22   106   100   am
    23    88    89    1
    24   100    99    1
    25   100   101    2
    26    99   102    1
    27     1     2    1
    28    37    39   ar
    29    37    35   ar
    30    75    74   ar
    31   111   112    1
    32   112   114   ar
    33   115   116    1
    34    72    74   ar
    35    39    38   ar
    36    90    89   ar
    37    90    92   ar
    38    89    91   ar
    39    34    35   ar
    40    34    32   ar
    41     3     2    1
    42    35    33   ar
    43    76    77    1
    44    92    93   ar
    45     2     5    1
    46    91    93   ar
    47    91    94   ar
    48   117   116    1
    49   117   118    2
    50   102   103    1
    51   102   104    1
    52   103   105    1
    53   116   119    1
    54    38    36   ar
    55     5     6    1
    56    93    95   ar
    57    94    96   ar
    58     8     6   ar
    59     8    10   ar
    60    32    31   ar
    61    33    36   ar
    62    33    31   ar
    63    77    78    1
    64    77    80    1
    65     6     7   ar
    66    78    79    2
    67    10    11   ar
    68    95    97   ar
    69    96    97   ar
    70    31    30    1
    71    82    81    1
    72   119   120    1
    73    17    16    1
    74   122   120   ar
    75   122   124   ar
    76    80    81    1
    77     7     9   ar
    78   120   121   ar
    79    11     9   ar
    80    30    27    1
    81    81    83    1
    82   124   125   ar
    83    16    18    1
    84    16    13    1
    85    14    15    2
    86    14    13    1
    87    12    13    1
    88   121   123   ar
    89    28    27    1
    90    28    29    2
    91    27    26    1
    92   125   123   ar
    93    26    21   am
    94    19    20    1
    95    21    20    1
    96    21    22    2
    97    46    45    1
    98    23    20    1
    99    23    24    1
   100    23    25    1
   101    47    45    1
   102    45    44    1
   103    57    54    1
   104    54    55    1
   105    54    53    1
   106    56    55    2
   107    44    41    1
   108    43    42    2
   109    53    50   am
   110    41    42    1
   111    41    40    1
   112    51    50    2
   113    50    49    1
   114    52    49    1
   115    49    48    1
   116    64    62    1
   117    58    59    1
   118    62    59    1
   119    62    63    1
   120    59    60    1
   121    60    61    2
