@<TRIPOS>MOLECULE
tmp/3aelA00.pdb
 118 109 0 0 0
SMALL
GASTEIGER

@<TRIPOS>ATOM
      1  N         -3.4150    4.7770   36.8030 N.3    80  SER80      -0.1202
      2  CA        -3.3650    5.8690   37.8130 C.3    80  SER80       0.2020
      3  C         -4.4170    5.5680   38.8970 C.2    80  SER80       0.2619
      4  O         -5.2880    4.7430   38.6790 O.2    80  SER80      -0.2717
      5  CB        -3.6940    7.2170   37.1590 C.3    80  SER80       0.2103
      6  OG        -4.9860    7.1860   36.5530 O.3    80  SER80      -0.2182
      7  N         -4.3050    6.1960   40.0650 N.am   81  GLY81      -0.1942
      8  CA        -5.3690    6.2190   41.0660 C.3    81  GLY81       0.2014
      9  C         -6.6920    6.6560   40.4420 C.2    81  GLY81       0.2638
     10  O         -7.7480    6.0590   40.7180 O.2    81  GLY81      -0.2714
     11  N         -6.6550    7.6960   39.6090 N.am   82  MET82      -0.1976
     12  CA        -7.8890    8.1300   38.9500 C.3    82  MET82       0.1605
     13  C         -8.4840    7.0500   38.0520 C.2    82  MET82       0.2287
     14  O         -9.7110    6.9490   37.9960 O.2    82  MET82      -0.2864
     15  CB        -7.7080    9.4500   38.1560 C.3    82  MET82       0.0413
     16  CG        -7.4850   10.7160   39.0140 C.3    82  MET82       0.0598
     17  SD        -8.5000   10.8580   40.5180 S.3    82  MET82      -0.1393
     18  CE       -10.1760   10.7980   39.8470 C.3    82  MET82       0.0692
     19  N        -10.2610    4.8010   40.5380 N.3    85  ILE85      -0.1245
     20  CA       -11.4850    5.4410   41.0670 C.3    85  ILE85       0.1561
     21  C        -12.6080    5.4450   40.0180 C.2    85  ILE85       0.2260
     22  O        -13.7680    5.0740   40.2970 O.2    85  ILE85      -0.2867
     23  CB       -11.1760    6.8500   41.5490 C.3    85  ILE85       0.0252
     24  CG1      -10.3350    6.7560   42.8130 C.3    85  ILE85       0.0019
     25  CG2      -12.4860    7.6620   41.8400 C.3    85  ILE85       0.0019
     26  CD1       -9.6200    8.0880   43.1700 C.3    85  ILE85       0.0001
     27  N         -9.8720   14.2620   47.3700 N.3   106  TYR106     -0.1241
     28  CA        -8.8730   14.6510   46.4160 C.3   106  TYR106      0.1605
     29  C         -9.5070   15.4580   45.2480 C.2   106  TYR106      0.2264
     30  O        -10.5810   15.1040   44.7550 O.2   106  TYR106     -0.2867
     31  CB        -8.1640   13.3760   45.9180 C.3   106  TYR106      0.0534
     32  CG        -7.2190   13.7080   44.8260 C.ar  106  TYR106     -0.0201
     33  CD1       -6.1540   14.5610   45.0630 C.ar  106  TYR106     -0.0009
     34  CD2       -7.3910   13.1880   43.5390 C.ar  106  TYR106     -0.0009
     35  CE1       -5.2950   14.9140   44.0350 C.ar  106  TYR106      0.0417
     36  CE2       -6.5310   13.5310   42.5100 C.ar  106  TYR106      0.0417
     37  CZ        -5.4810   14.3820   42.7640 C.ar  106  TYR106      0.1957
     38  OH        -4.6100   14.7460   41.7620 O.3   106  TYR106     -0.2866
     39  N        -13.1540    8.7910   51.4350 N.3   149  GLU149     -0.1245
     40  CA       -11.7080    8.8420   51.6370 C.3   149  GLU149      0.1567
     41  C        -11.5930    9.1430   53.0920 C.2   149  GLU149      0.2260
     42  O        -12.1720   10.1200   53.5480 O.2   149  GLU149     -0.2867
     43  CB       -11.1110   10.0860   50.9760 C.3   149  GLU149      0.0388
     44  CG       -10.3570    9.9170   49.7560 C.3   149  GLU149      0.1160
     45  CD        -9.9290   11.2460   49.1760 C.2   149  GLU149      0.3649
     46  OE1       -9.1560   11.9730   49.8240 O.co2 149  GLU149     -0.2457
     47  OE2      -10.3640   11.5360   48.0440 O.co2 149  GLU149     -0.2457
     48  N         -8.0590   13.7550   51.9280 N.3   153  ASN153     -0.1240
     49  CA        -6.9820   14.5490   51.3450 C.3   153  ASN153      0.1653
     50  C         -7.5700   15.9370   51.0300 C.2   153  ASN153      0.2266
     51  O         -8.4920   16.0480   50.2200 O.2   153  ASN153     -0.2867
     52  CB        -6.4580   13.8510   50.0880 C.3   153  ASN153      0.1155
     53  CG        -5.3850   14.6530   49.3530 C.2   153  ASN153      0.2627
     54  OD1       -5.0380   15.7570   49.7480 O.2   153  ASN153     -0.2716
     55  ND2       -4.8290   14.0690   48.2950 N.am  153  ASN153     -0.0877
     56  N        -11.2940    4.8840   49.4230 N.3   178  ASP178     -0.1239
     57  CA        -9.9630    5.2640   48.9490 C.3   178  ASP178      0.1674
     58  C         -9.0720    5.4020   50.1670 C.2   178  ASP178      0.2266
     59  O         -9.2250    6.3450   50.9860 O.2   178  ASP178     -0.2867
     60  CB       -10.0720    6.5790   48.1670 C.3   178  ASP178      0.1410
     61  CG        -8.7540    7.0410   47.6180 C.2   178  ASP178      0.3668
     62  OD1       -7.6900    6.4920   47.9990 O.co2 178  ASP178     -0.2456
     63  OD2       -8.7830    7.9810   46.7780 O.co2 178  ASP178     -0.2456
     64  N         -5.7330    5.5390   50.0810 N.3   180  THR180     -0.1203
     65  CA        -4.4340    6.0420   49.6080 C.3   180  THR180      0.1994
     66  C         -3.5860    6.6680   50.7470 C.2   180  THR180      0.2617
     67  O         -2.3680    6.3580   50.8600 O.2   180  THR180     -0.2717
     68  CB        -4.6450    7.1240   48.5470 C.3   180  THR180      0.1784
     69  OG1       -5.2530    6.5410   47.3780 O.3   180  THR180     -0.2211
     70  CG2       -3.3330    7.8250   48.1900 C.3   180  THR180      0.0376
     71  N         -4.2090    7.5200   51.5700 N.am  181  PHE181     -0.1975
     72  CA        -3.4780    8.3060   52.5780 C.3   181  PHE181      0.1639
     73  C         -2.8550    7.4710   53.7010 C.2   181  PHE181      0.2290
     74  O         -1.9460    7.9190   54.4200 O.2   181  PHE181     -0.2864
     75  CB        -4.4110    9.3870   53.2060 C.3   181  PHE181      0.0560
     76  CG        -4.0910   10.7900   52.8050 C.ar  181  PHE181     -0.0200
     77  CD1       -3.7530   11.0930   51.4710 C.ar  181  PHE181     -0.0042
     78  CD2       -4.1520   11.8220   53.7370 C.ar  181  PHE181     -0.0042
     79  CE1       -3.4670   12.4120   51.0980 C.ar  181  PHE181     -0.0003
     80  CE2       -3.8530   13.1600   53.3680 C.ar  181  PHE181     -0.0003
     81  CZ        -3.5060   13.4340   52.0580 C.ar  181  PHE181     -0.0000
     82  N         -4.3740    5.1800   45.1150 N.3   200  SER200     -0.1217
     83  CA        -3.3610    5.6630   44.2010 C.3   200  SER200      0.1889
     84  C         -2.0560    4.9750   44.6210 C.2   200  SER200      0.2288
     85  O         -1.4650    5.2980   45.6650 O.2   200  SER200     -0.2866
     86  CB        -3.2080    7.1830   44.3030 C.3   200  SER200      0.2089
     87  OG        -2.0910    7.6200   43.5220 O.3   200  SER200     -0.2183
     88  N          0.6280    5.4000   43.0830 N.3   202  SER202     -0.1202
     89  CA         1.5620    6.5380   42.9450 C.3   202  SER202      0.2020
     90  C          2.1590    7.0840   44.2590 C.2   202  SER202      0.2618
     91  O          3.2360    7.7080   44.2590 O.2   202  SER202     -0.2717
     92  CB         0.8300    7.7050   42.2690 C.3   202  SER202      0.2103
     93  OG         0.0670    7.2280   41.1780 O.3   202  SER202     -0.2182
     94  N          1.4500    6.8560   45.3540 N.am  203  LYS203     -0.1979
     95  CA         1.8300    7.4300   46.6410 C.3   203  LYS203      0.1596
     96  C          2.5810    6.3640   47.4220 C.2   203  LYS203      0.2287
     97  O          3.6030    5.8630   46.9220 O.2   203  LYS203     -0.2864
     98  CB         0.5920    7.9450   47.3880 C.3   203  LYS203      0.0298
     99  CG        -0.3350    8.8200   46.5690 C.3   203  LYS203      0.0038
    100  CD         0.3910    9.8780   45.7920 C.3   203  LYS203      0.0206
    101  CE        -0.6520   10.7560   45.1950 C.3   203  LYS203      0.1093
    102  NZ        -0.0250   11.3710   44.0220 N.3   203  LYS203     -0.1314
    103  N          3.1780    6.5030   38.2400 N.3   212  ILE212     -0.1245
    104  CA         1.7590    6.7790   38.5060 C.3   212  ILE212      0.1561
    105  C          0.9740    5.4880   38.2780 C.2   212  ILE212      0.2260
    106  O          1.1420    4.8220   37.2450 O.2   212  ILE212     -0.2867
    107  CB         1.2740    7.9880   37.6710 C.3   212  ILE212      0.0252
    108  CG1        1.9850    9.2710   38.2420 C.3   212  ILE212      0.0019
    109  CG2       -0.2890    8.1010   37.7620 C.3   212  ILE212      0.0019
    110  CD1        1.4870   10.5630   37.6920 C.3   212  ILE212      0.0001
    111  N          2.4810   12.7630   47.3540 N.3   331  LEU331     -0.1245
    112  CA         2.6920   12.4110   48.7650 C.3   331  LEU331      0.1561
    113  C          3.1440   10.9750   48.8330 C.2   331  LEU331      0.2260
    114  O          3.0710   10.2240   47.8210 O.2   331  LEU331     -0.2867
    115  CB         1.3720   12.6100   49.5640 C.3   331  LEU331      0.0270
    116  CG         0.2000   11.7370   49.0780 C.3   331  LEU331      0.0019
    117  CD1       -0.2380   10.8500   50.2350 C.3   331  LEU331      0.0001
    118  CD2       -0.9570   12.6340   48.6590 C.3   331  LEU331      0.0001
@<TRIPOS>BOND
     1     6     5    1
     2     1     2    1
     3     5     2    1
     4   106   105    2
     5   107   109    1
     6   107   108    1
     7   107   104    1
     8   110   108    1
     9     2     3    1
    10    14    13    2
    11    13    12    1
    12    15    12    1
    13    15    16    1
    14   103   104    1
    15   105   104    1
    16     4     3    2
    17     3     7   am
    18    12    11    1
    19    16    17    1
    20    11     9   am
    21    18    17    1
    22    21    22    2
    23    21    20    1
    24     7     8    1
    25     9    10    2
    26     9     8    1
    27    19    20    1
    28    20    23    1
    29    93    92    1
    30    23    25    1
    31    23    24    1
    32    38    37    1
    33    92    89    1
    34    36    37   ar
    35    36    34   ar
    36    37    35   ar
    37    24    26    1
    38    89    88    1
    39    89    90    1
    40    87    86    1
    41    34    32   ar
    42   102   101    1
    43    35    33   ar
    44    83    86    1
    45    83    84    1
    46    83    82    1
    47    90    91    2
    48    90    94   am
    49    84    85    2
    50    30    29    2
    51    32    33   ar
    52    32    31    1
    53   101   100    1
    54    29    28    1
    55    94    95    1
    56   100    99    1
    57    31    28    1
    58    28    27    1
    59    99    98    1
    60    95    98    1
    61    95    96    1
    62    63    61   ar
    63    97    96    2
    64   111   112    1
    65    69    68    1
    66    61    62   ar
    67    61    60    1
    68   114   113    2
    69    47    45   ar
    70    60    57    1
    71    70    68    1
    72    55    53   am
    73    68    65    1
    74   118   116    1
    75   112   113    1
    76   112   115    1
    77    57    56    1
    78    57    58    1
    79   116   115    1
    80   116   117    1
    81    45    44    1
    82    45    46   ar
    83    53    54    2
    84    53    52    1
    85    65    64    1
    86    65    66    1
    87    44    43    1
    88    52    49    1
    89    58    59    2
    90    51    50    2
    91    66    67    2
    92    66    71   am
    93    43    40    1
    94    50    49    1
    95    79    77   ar
    96    79    81   ar
    97    49    48    1
    98    39    40    1
    99    77    76   ar
   100    71    72    1
   101    40    41    1
   102    81    80   ar
   103    72    75    1
   104    72    73    1
   105    76    75    1
   106    76    78   ar
   107    41    42    2
   108    80    78   ar
   109    73    74    2
