@<TRIPOS>MOLECULE
tmp/3aepC00.pdb
 132 122 0 0 0
SMALL
GASTEIGER

@<TRIPOS>ATOM
      1  N         29.2180   -4.8420   36.8990 N.3    80  SER80      -0.1202
      2  CA        29.2290   -5.9380   37.8820 C.3    80  SER80       0.2020
      3  C         30.2670   -5.6550   38.9380 C.2    80  SER80       0.2619
      4  O         31.2020   -4.9150   38.6820 O.2    80  SER80      -0.2717
      5  CB        29.5740   -7.2840   37.1960 C.3    80  SER80       0.2103
      6  OG        30.8530   -7.2190   36.5590 O.3    80  SER80      -0.2182
      7  N         30.1390   -6.2840   40.1080 N.am   81  GLY81      -0.1942
      8  CA        31.2400   -6.3360   41.0970 C.3    81  GLY81       0.2014
      9  C         32.5720   -6.7600   40.4750 C.2    81  GLY81       0.2638
     10  O         33.6300   -6.1570   40.7640 O.2    81  GLY81      -0.2714
     11  N         32.5420   -7.7920   39.6290 N.am   82  MET82      -0.1976
     12  CA        33.7450   -8.2490   39.0080 C.3    82  MET82       0.1605
     13  C         34.3610   -7.1270   38.1300 C.2    82  MET82       0.2287
     14  O         35.5810   -7.0250   38.0370 O.2    82  MET82      -0.2864
     15  CB        33.5310   -9.5620   38.1980 C.3    82  MET82       0.0413
     16  CG        33.2280  -10.8050   39.0870 C.3    82  MET82       0.0598
     17  SD        34.3020  -10.9240   40.5670 S.3    82  MET82      -0.1393
     18  CE        35.9650  -10.9970   39.8170 C.3    82  MET82       0.0692
     19  N         36.1260   -4.9430   40.5490 N.3    85  ILE85      -0.1245
     20  CA        37.3440   -5.5800   41.0810 C.3    85  ILE85       0.1561
     21  C         38.4840   -5.5410   40.0580 C.2    85  ILE85       0.2260
     22  O         39.6100   -5.1570   40.3790 O.2    85  ILE85      -0.2867
     23  CB        37.0420   -7.0450   41.5520 C.3    85  ILE85       0.0252
     24  CG1       36.1340   -6.9780   42.8000 C.3    85  ILE85       0.0019
     25  CG2       38.3530   -7.8120   41.7780 C.3    85  ILE85       0.0019
     26  CD1       35.5990   -8.3060   43.3140 C.3    85  ILE85       0.0001
     27  N         35.6810  -14.4370   47.3960 N.3   106  TYR106     -0.1241
     28  CA        34.6720  -14.8060   46.4290 C.3   106  TYR106      0.1605
     29  C         35.2890  -15.6250   45.2570 C.2   106  TYR106      0.2264
     30  O         36.3670  -15.2890   44.7530 O.2   106  TYR106     -0.2867
     31  CB        33.9670  -13.5300   45.9270 C.3   106  TYR106      0.0534
     32  CG        33.0020  -13.8370   44.8280 C.ar  106  TYR106     -0.0201
     33  CD1       31.9550  -14.7380   45.0430 C.ar  106  TYR106     -0.0009
     34  CD2       33.1490  -13.2830   43.5640 C.ar  106  TYR106     -0.0009
     35  CE1       31.0770  -15.0840   44.0110 C.ar  106  TYR106      0.0417
     36  CE2       32.2560  -13.6010   42.5270 C.ar  106  TYR106      0.0417
     37  CZ        31.2250  -14.4900   42.7650 C.ar  106  TYR106      0.1957
     38  OH        30.3450  -14.8320   41.7580 O.3   106  TYR106     -0.2866
     39  N         39.0820   -8.8730   51.4820 N.3   149  GLU149     -0.1245
     40  CA        37.6420   -8.9590   51.6350 C.3   149  GLU149      0.1567
     41  C         37.4650   -9.2130   53.0920 C.2   149  GLU149      0.2260
     42  O         38.0100  -10.1750   53.5990 O.2   149  GLU149     -0.2867
     43  CB        37.1480  -10.2410   50.9730 C.3   149  GLU149      0.0388
     44  CG        36.0840  -10.1010   49.9820 C.3   149  GLU149      0.1160
     45  CD        35.7540  -11.4240   49.3280 C.2   149  GLU149      0.3649
     46  OE1       35.1100  -12.2610   49.9650 O.co2 149  GLU149     -0.2457
     47  OE2       36.1330  -11.6250   48.1660 O.co2 149  GLU149     -0.2457
     48  N         33.9960  -13.8590   52.0090 N.3   153  ASN153     -0.1240
     49  CA        32.9660  -14.7170   51.4590 C.3   153  ASN153      0.1653
     50  C         33.5830  -16.1150   51.2450 C.2   153  ASN153      0.2266
     51  O         34.5960  -16.2430   50.5540 O.2   153  ASN153     -0.2867
     52  CB        32.4920  -14.0750   50.1420 C.3   153  ASN153      0.1155
     53  CG        31.3270  -14.8170   49.4820 C.2   153  ASN153      0.2627
     54  OD1       30.9690  -15.9180   49.8710 O.2   153  ASN153     -0.2716
     55  ND2       30.7360  -14.1910   48.4520 N.am  153  ASN153     -0.0877
     56  N         37.2250   -4.9770   49.5100 N.3   178  ASP178     -0.1239
     57  CA        35.9210   -5.3360   48.9910 C.3   178  ASP178      0.1674
     58  C         34.9960   -5.4670   50.1990 C.2   178  ASP178      0.2266
     59  O         35.1540   -6.3710   51.0080 O.2   178  ASP178     -0.2867
     60  CB        36.0030   -6.6280   48.1950 C.3   178  ASP178      0.1410
     61  CG        34.6420   -7.1000   47.6990 C.2   178  ASP178      0.3668
     62  OD1       33.5880   -6.5930   48.1730 O.co2 178  ASP178     -0.2456
     63  OD2       34.6280   -8.0140   46.8200 O.co2 178  ASP178     -0.2456
     64  N         31.5900   -5.6500   50.1770 N.3   180  THR180     -0.1203
     65  CA        30.2940   -6.1500   49.7600 C.3   180  THR180      0.1994
     66  C         29.4650   -6.7520   50.9050 C.2   180  THR180      0.2617
     67  O         28.2760   -6.4480   51.0180 O.2   180  THR180     -0.2717
     68  CB        30.5030   -7.2090   48.6470 C.3   180  THR180      0.1784
     69  OG1       31.1010   -6.5840   47.4920 O.3   180  THR180     -0.2211
     70  CG2       29.2010   -7.9050   48.2940 C.3   180  THR180      0.0376
     71  N         30.0790   -7.5970   51.7470 N.am  181  PHE181     -0.1975
     72  CA        29.3370   -8.3790   52.7290 C.3   181  PHE181      0.1639
     73  C         28.7400   -7.5820   53.8690 C.2   181  PHE181      0.2290
     74  O         27.8700   -8.1010   54.6000 O.2   181  PHE181     -0.2864
     75  CB        30.2120   -9.4650   53.3500 C.3   181  PHE181      0.0560
     76  CG        29.9030  -10.8380   52.8770 C.ar  181  PHE181     -0.0200
     77  CD1       29.6850  -11.0940   51.5250 C.ar  181  PHE181     -0.0042
     78  CD2       29.8860  -11.8940   53.7700 C.ar  181  PHE181     -0.0042
     79  CE1       29.4170  -12.3990   51.0920 C.ar  181  PHE181     -0.0003
     80  CE2       29.6230  -13.1800   53.3530 C.ar  181  PHE181     -0.0003
     81  CZ        29.3930  -13.4430   52.0320 C.ar  181  PHE181     -0.0000
     82  N         35.3880   -1.0400   47.5110 N.3   198  LEU198     -0.1245
     83  CA        34.5190   -1.4310   46.4100 C.3   198  LEU198      0.1561
     84  C         33.4120   -2.3400   46.8500 C.2   198  LEU198      0.2260
     85  O         33.4900   -2.9470   47.9270 O.2   198  LEU198     -0.2867
     86  CB        35.3340   -2.0790   45.2940 C.3   198  LEU198      0.0270
     87  CG        36.0740   -3.3850   45.4730 C.3   198  LEU198      0.0019
     88  CD1       35.0830   -4.5440   45.1970 C.3   198  LEU198      0.0001
     89  CD2       37.2360   -3.3880   44.4900 C.3   198  LEU198      0.0001
     90  N         30.2210   -5.1870   45.2350 N.3   200  SER200     -0.1217
     91  CA        29.1600   -5.6420   44.3320 C.3   200  SER200      0.1889
     92  C         27.8460   -4.9480   44.7570 C.2   200  SER200      0.2288
     93  O         27.2590   -5.2470   45.8170 O.2   200  SER200     -0.2866
     94  CB        28.9820   -7.1660   44.3740 C.3   200  SER200      0.2089
     95  OG        27.8710   -7.5490   43.5480 O.3   200  SER200     -0.2183
     96  N         25.1410   -5.4470   43.2620 N.3   202  SER202     -0.1202
     97  CA        24.1910   -6.5370   43.0980 C.3   202  SER202      0.2020
     98  C         23.6740   -7.0860   44.4170 C.2   202  SER202      0.2618
     99  O         22.6090   -7.7340   44.4500 O.2   202  SER202     -0.2717
    100  CB        24.8470   -7.6980   42.3600 C.3   202  SER202      0.2103
    101  OG        25.7470   -7.2450   41.3600 O.3   202  SER202     -0.2182
    102  N         24.3980   -6.8270   45.4990 N.am  203  LYS203     -0.1979
    103  CA        23.9710   -7.3470   46.8000 C.3   203  LYS203      0.1596
    104  C         23.2030   -6.2720   47.5850 C.2   203  LYS203      0.2287
    105  O         22.1790   -5.8170   47.0930 O.2   203  LYS203     -0.2864
    106  CB        25.1410   -7.9160   47.6130 C.3   203  LYS203      0.0298
    107  CG        26.1500   -8.6770   46.8160 C.3   203  LYS203      0.0038
    108  CD        25.5440   -9.7630   46.0090 C.3   203  LYS203      0.0206
    109  CE        26.6650  -10.5010   45.3680 C.3   203  LYS203      0.1093
    110  NZ        26.0990  -11.2400   44.2390 N.3   203  LYS203     -0.1314
    111  N         22.5710   -6.4530   38.3780 N.3   212  ILE212     -0.1245
    112  CA        23.9740   -6.8020   38.5940 C.3   212  ILE212      0.1561
    113  C         24.7450   -5.5330   38.4190 C.2   212  ILE212      0.2260
    114  O         24.5790   -4.8550   37.3900 O.2   212  ILE212     -0.2867
    115  CB        24.5290   -7.7690   37.5270 C.3   212  ILE212      0.0252
    116  CG1       23.7700   -9.1040   37.5210 C.3   212  ILE212      0.0019
    117  CG2       26.0300   -8.0260   37.7760 C.3   212  ILE212      0.0019
    118  CD1       23.8650   -9.8710   38.8230 C.3   212  ILE212      0.0001
    119  N         24.0110  -15.7490   45.4230 N.3   330  SER330     -0.1202
    120  CA        23.8410  -14.3070   45.6680 C.3   330  SER330      0.2020
    121  C         23.4160  -14.0440   47.0940 C.2   330  SER330      0.2618
    122  O         23.1650  -14.9820   47.8590 O.2   330  SER330     -0.2717
    123  CB        22.8600  -13.6490   44.6930 C.3   330  SER330      0.2103
    124  OG        23.0570  -12.2490   44.6980 O.3   330  SER330     -0.2182
    125  N         23.3510  -12.7690   47.4730 N.am  331  LEU331     -0.1979
    126  CA        23.1070  -12.4210   48.8880 C.3   331  LEU331      0.1596
    127  C         22.6610  -10.9890   48.9390 C.2   331  LEU331      0.2287
    128  O         22.7420  -10.2810   47.9240 O.2   331  LEU331     -0.2864
    129  CB        24.3750  -12.6250   49.7470 C.3   331  LEU331      0.0297
    130  CG        25.5920  -11.8020   49.2660 C.3   331  LEU331      0.0022
    131  CD1       26.1460  -10.8850   50.3390 C.3   331  LEU331      0.0001
    132  CD2       26.6730  -12.7220   48.7060 C.3   331  LEU331      0.0001
@<TRIPOS>BOND
     1     6     5    1
     2     1     2    1
     3     5     2    1
     4   114   113    2
     5   116   115    1
     6   116   118    1
     7   115   117    1
     8   115   112    1
     9     2     3    1
    10    14    13    2
    11    13    12    1
    12    15    12    1
    13    15    16    1
    14   111   112    1
    15   113   112    1
    16     4     3    2
    17     3     7   am
    18    12    11    1
    19    16    17    1
    20    11     9   am
    21    18    17    1
    22    21    22    2
    23    21    20    1
    24     7     8    1
    25     9    10    2
    26     9     8    1
    27    19    20    1
    28    20    23    1
    29   101   100    1
    30    23    25    1
    31    23    24    1
    32    38    37    1
    33   100    97    1
    34    36    37   ar
    35    36    34   ar
    36    37    35   ar
    37    24    26    1
    38    97    96    1
    39    97    98    1
    40    95    94    1
    41    34    32   ar
    42    35    33   ar
    43   110   109    1
    44    91    94    1
    45    91    92    1
    46    91    90    1
    47    98    99    2
    48    98   102   am
    49    89    87    1
    50   123   124    1
    51   123   120    1
    52    30    29    2
    53    92    93    2
    54    32    33   ar
    55    32    31    1
    56    88    87    1
    57    29    28    1
    58    86    87    1
    59    86    83    1
    60   109   108    1
    61   119   120    1
    62   102   103    1
    63   120   121    1
    64    31    28    1
    65   108   107    1
    66    83    84    1
    67    83    82    1
    68    28    27    1
    69   103   104    1
    70   103   106    1
    71   107   106    1
    72    63    61   ar
    73    84    85    2
    74   105   104    2
    75   121   125   am
    76   121   122    2
    77   125   126    1
    78    69    68    1
    79    61    62   ar
    80    61    60    1
    81   128   127    2
    82    47    45   ar
    83    60    57    1
    84    70    68    1
    85    55    53   am
    86    68    65    1
    87   132   130    1
    88   126   127    1
    89   126   129    1
    90    57    56    1
    91    57    58    1
    92   130   129    1
    93   130   131    1
    94    45    46   ar
    95    45    44    1
    96    53    54    2
    97    53    52    1
    98    65    64    1
    99    65    66    1
   100    44    43    1
   101    52    49    1
   102    58    59    2
   103    51    50    2
   104    66    67    2
   105    66    71   am
   106    43    40    1
   107    79    77   ar
   108    79    81   ar
   109    50    49    1
   110    49    48    1
   111    39    40    1
   112    77    76   ar
   113    40    41    1
   114    71    72    1
   115    81    80   ar
   116    72    75    1
   117    72    73    1
   118    76    75    1
   119    76    78   ar
   120    41    42    2
   121    80    78   ar
   122    73    74    2
