@<TRIPOS>MOLECULE
tmp/3aexB00.pdb
 199 189 0 0 0
SMALL
GASTEIGER

@<TRIPOS>ATOM
      1  N        -44.4080    1.8900   -6.8170 N.3    59  SER59      -0.1202
      2  CA       -42.9990    1.5380   -6.6970 C.3    59  SER59       0.2020
      3  C        -42.5550    1.7310   -5.2540 C.2    59  SER59       0.2619
      4  O        -43.2560    2.3510   -4.4600 O.2    59  SER59      -0.2717
      5  CB       -42.1320    2.3760   -7.6510 C.3    59  SER59       0.2103
      6  OG       -41.9060    3.6870   -7.1640 O.3    59  SER59      -0.2182
      7  N        -41.3950    1.1840   -4.9140 N.am   60  PHE60      -0.1961
      8  CA       -40.8740    1.2860   -3.5610 C.3    60  PHE60       0.1771
      9  C        -40.4740    2.7170   -3.1570 C.2    60  PHE60       0.2619
     10  O        -40.2940    2.9970   -1.9680 O.2    60  PHE60      -0.2715
     11  CB       -39.6700    0.3510   -3.4090 C.3    60  PHE60       0.0574
     12  CG       -38.4520    0.7980   -4.1670 C.ar   60  PHE60      -0.0200
     13  CD1      -37.4690    1.5660   -3.5400 C.ar   60  PHE60      -0.0042
     14  CD2      -38.2790    0.4490   -5.5010 C.ar   60  PHE60      -0.0042
     15  CE1      -36.3230    1.9780   -4.2360 C.ar   60  PHE60      -0.0003
     16  CE2      -37.1400    0.8560   -6.2060 C.ar   60  PHE60      -0.0003
     17  CZ       -36.1590    1.6220   -5.5700 C.ar   60  PHE60      -0.0000
     18  N        -40.3330    3.6040   -4.1420 N.am   61  LYS61      -0.1977
     19  CA       -39.9430    4.9880   -3.8740 C.3    61  LYS61       0.1596
     20  C        -40.8230    5.5560   -2.7870 C.2    61  LYS61       0.2287
     21  O        -40.3820    6.4210   -2.0160 O.2    61  LYS61      -0.2864
     22  CB       -40.0340    5.8430   -5.1370 C.3    61  LYS61       0.0298
     23  CG       -39.1330    5.3510   -6.2400 C.3    61  LYS61       0.0038
     24  CD       -37.6910    5.2690   -5.8000 C.3    61  LYS61       0.0206
     25  CE       -36.8370    4.8080   -6.9650 C.3    61  LYS61       0.1093
     26  NZ       -35.3970    4.6550   -6.6300 N.3    61  LYS61      -0.1314
     27  N        -34.5630   14.5320   -9.6350 N.3    83  ALA83      -0.1231
     28  CA       -34.2680   14.0700  -10.9790 C.3    83  ALA83       0.1694
     29  C        -34.9470   12.6900  -10.9630 C.2    83  ALA83       0.2593
     30  O        -35.2220   12.1670   -9.8870 O.2    83  ALA83      -0.2718
     31  CB       -32.7660   13.9180  -11.1700 C.3    83  ALA83       0.0304
     32  N        -35.2180   12.0900  -12.1150 N.am   84  SER84      -0.1938
     33  CA       -35.8730   10.7750  -12.0950 C.3    84  SER84       0.2055
     34  C        -36.0530   10.0620  -13.4330 C.2    84  SER84       0.2643
     35  O        -36.2560   10.6980  -14.4640 O.2    84  SER84      -0.2714
     36  CB       -37.2500   10.8990  -11.4330 C.3    84  SER84       0.2130
     37  OG       -37.9260    9.6550  -11.4090 O.3    84  SER84      -0.2179
     38  N        -35.9670    8.7290  -13.3970 N.am   85  THR85      -0.1950
     39  CA       -36.1830    7.9060  -14.5810 C.3    85  THR85       0.1897
     40  C        -37.7000    7.6900  -14.6680 C.2    85  THR85       0.2313
     41  O        -38.2180    7.1090  -15.6270 O.2    85  THR85      -0.2863
     42  CB       -35.4610    6.5450  -14.4800 C.3    85  THR85       0.1794
     43  OG1      -35.7440    5.9430  -13.2120 O.3    85  THR85      -0.2208
     44  CG2      -33.9500    6.7280  -14.6220 C.3    85  THR85       0.0378
     45  N        -40.1280    6.8390  -11.5870 N.3    87  ASN87      -0.1225
     46  CA       -40.7880    6.4910  -10.3240 C.3    87  ASN87       0.1785
     47  C        -40.5840    7.4220   -9.1340 C.2    87  ASN87       0.2597
     48  O        -41.5420    7.7190   -8.3990 O.2    87  ASN87      -0.2718
     49  CB       -40.4340    5.0470   -9.9470 C.3    87  ASN87       0.1169
     50  CG       -41.0420    4.0480  -10.9100 C.2    87  ASN87       0.2627
     51  OD1      -42.1790    4.2210  -11.3280 O.2    87  ASN87      -0.2716
     52  ND2      -40.2970    3.0000  -11.2620 N.am   87  ASN87      -0.0877
     53  N        -39.3560    7.8850   -8.9270 N.am   88  THR88      -0.1953
     54  CA       -39.1170    8.8070   -7.8230 C.3    88  THR88       0.1897
     55  C        -39.9500   10.0710   -8.0540 C.2    88  THR88       0.2313
     56  O        -40.5180   10.6290   -7.1250 O.2    88  THR88      -0.2863
     57  CB       -37.6370    9.2130   -7.7190 C.3    88  THR88       0.1794
     58  OG1      -36.8320    8.0470   -7.5490 O.3    88  THR88      -0.2208
     59  CG2      -37.4250   10.1230   -6.5170 C.3    88  THR88       0.0378
     60  N        -45.2910    6.3470  -15.9060 N.3   116  LYS116     -0.1245
     61  CA       -44.6530    7.2700  -14.9860 C.3   116  LYS116      0.1561
     62  C        -44.8840    8.7370  -15.3890 C.2   116  LYS116      0.2260
     63  O        -45.0220    9.6100  -14.5270 O.2   116  LYS116     -0.2867
     64  CB       -43.1640    6.9440  -14.9280 C.3   116  LYS116      0.0271
     65  CG       -42.8990    5.4670  -14.6390 C.3   116  LYS116      0.0035
     66  CD       -41.4310    5.1240  -14.7530 C.3   116  LYS116      0.0206
     67  CE       -41.2350    3.6110  -14.6800 C.3   116  LYS116      0.1093
     68  NZ       -39.7960    3.2090  -14.6290 N.3   116  LYS116     -0.1314
     69  N        -30.4360   10.4810  -17.2120 N.3   134  PHE134     -0.1241
     70  CA       -30.7060   10.6310  -15.7850 C.3   134  PHE134      0.1605
     71  C        -29.5570   11.3110  -15.0520 C.2   134  PHE134      0.2264
     72  O        -29.7720   12.2180  -14.2560 O.2   134  PHE134     -0.2867
     73  CB       -30.9540    9.2650  -15.1350 C.3   134  PHE134      0.0534
     74  CG       -31.0400    9.3140  -13.6310 C.ar  134  PHE134     -0.0203
     75  CD1      -32.1820    9.7850  -13.0000 C.ar  134  PHE134     -0.0042
     76  CD2      -29.9730    8.8940  -12.8510 C.ar  134  PHE134     -0.0042
     77  CE1      -32.2610    9.8350  -11.6090 C.ar  134  PHE134     -0.0003
     78  CE2      -30.0410    8.9400  -11.4590 C.ar  134  PHE134     -0.0003
     79  CZ       -31.1880    9.4120  -10.8390 C.ar  134  PHE134     -0.0000
     80  N        -34.2140   13.5300   -3.7280 N.3   154  ASN154     -0.1240
     81  CA       -33.5410   12.4220   -4.3920 C.3   154  ASN154      0.1653
     82  C        -32.8240   11.6450   -3.3020 C.2   154  ASN154      0.2266
     83  O        -32.5960   12.1720   -2.2110 O.2   154  ASN154     -0.2867
     84  CB       -32.5370   12.9190   -5.4440 C.3   154  ASN154      0.1155
     85  CG       -33.1550   13.0340   -6.8380 C.2   154  ASN154      0.2627
     86  OD1      -33.4990   14.1200   -7.3000 O.2   154  ASN154     -0.2716
     87  ND2      -33.3070   11.9010   -7.5040 N.am  154  ASN154     -0.0877
     88  N        -36.6790    3.8250    3.1250 N.3   164  GLN164     -0.1245
     89  CA       -36.5830    2.6120    2.3190 C.3   164  GLN164      0.1566
     90  C        -36.0190    1.4010    3.0520 C.2   164  GLN164      0.2260
     91  O        -36.2310    0.2670    2.6300 O.2   164  GLN164     -0.2867
     92  CB       -35.7790    2.8950    1.0410 C.3   164  GLN164      0.0367
     93  CG       -36.4540    3.9480    0.1660 C.3   164  GLN164      0.0905
     94  CD       -35.6330    4.3700   -1.0360 C.2   164  GLN164      0.2608
     95  OE1      -35.9630    5.3500   -1.7040 O.2   164  GLN164     -0.2717
     96  NE2      -34.5660    3.6350   -1.3220 N.am  164  GLN164     -0.0878
     97  N        -32.8610   -4.8920   -8.1580 N.3   185  PRO185     -0.2102
     98  CA       -32.1870   -4.1760   -9.2420 C.3   185  PRO185      0.1504
     99  C        -31.3740   -3.0520   -8.6050 C.2   185  PRO185      0.2576
    100  O        -31.6700   -2.6390   -7.4870 O.2   185  PRO185     -0.2718
    101  CB       -33.3480   -3.6230  -10.0760 C.3   185  PRO185      0.0282
    102  CG       -34.5700   -4.3610   -9.5740 C.3   185  PRO185      0.0208
    103  CD       -34.2930   -4.5590   -8.1280 C.3   185  PRO185      0.0893
    104  N        -30.3550   -2.5690   -9.3090 N.am  186  VAL186     -0.1966
    105  CA       -29.5340   -1.4730   -8.8120 C.3   186  VAL186      0.1727
    106  C        -29.4740   -0.3790   -9.8880 C.2   186  VAL186      0.2617
    107  O        -28.9760   -0.6120  -10.9920 O.2   186  VAL186     -0.2715
    108  CB       -28.0820   -1.9210   -8.4900 C.3   186  VAL186      0.0290
    109  CG1      -27.2810   -0.7140   -7.9500 C.3   186  VAL186      0.0023
    110  CG2      -28.0850   -3.0530   -7.4730 C.3   186  VAL186      0.0023
    111  N        -30.0210    0.7920   -9.5670 N.am  187  GLY187     -0.1940
    112  CA       -30.0000    1.9140  -10.4900 C.3   187  GLY187      0.2014
    113  C        -29.0420    2.9580   -9.9430 C.2   187  GLY187      0.2639
    114  O        -27.8340    2.8970  -10.1920 O.2   187  GLY187     -0.2714
    115  N        -29.5860    3.8990   -9.1750 N.am  188  ASN188     -0.1958
    116  CA       -28.8050    4.9650   -8.5620 C.3   188  ASN188      0.1819
    117  C        -28.2330    4.4420   -7.2340 C.2   188  ASN188      0.2621
    118  O        -27.5570    5.1700   -6.4980 O.2   188  ASN188     -0.2715
    119  CB       -29.7030    6.1910   -8.3490 C.3   188  ASN188      0.1195
    120  CG       -28.9180    7.4990   -8.2860 C.2   188  ASN188      0.2630
    121  OD1      -27.9050    7.6660   -8.9610 O.2   188  ASN188     -0.2716
    122  ND2      -29.4000    8.4360   -7.4830 N.am  188  ASN188     -0.0877
    123  N        -28.5330    3.1710   -6.9450 N.am  189  ALA189     -0.1963
    124  CA       -28.0500    2.4420   -5.7650 C.3   189  ALA189      0.1728
    125  C        -28.6070    2.7640   -4.3700 C.2   189  ALA189      0.2617
    126  O        -28.1870    2.1640   -3.3880 O.2   189  ALA189     -0.2715
    127  CB       -26.5090    2.4990   -5.7290 C.3   189  ALA189      0.0334
    128  N        -29.5560    3.6840   -4.2680 N.am  190  GLY190     -0.1940
    129  CA       -30.0940    4.0070   -2.9570 C.3   190  GLY190      0.2014
    130  C        -30.8130    2.8560   -2.2600 C.2   190  GLY190      0.2639
    131  O        -30.7300    2.7130   -1.0330 O.2   190  GLY190     -0.2714
    132  N        -31.5100    2.0260   -3.0350 N.am  191  ASN191     -0.1958
    133  CA       -32.2720    0.9100   -2.4780 C.3   191  ASN191      0.1819
    134  C        -31.4270   -0.2090   -1.8780 C.2   191  ASN191      0.2621
    135  O        -31.6730   -0.6390   -0.7470 O.2   191  ASN191     -0.2715
    136  CB       -33.2110    0.3310   -3.5420 C.3   191  ASN191      0.1195
    137  CG       -34.4890   -0.2160   -2.9490 C.2   191  ASN191      0.2630
    138  OD1      -34.9160    0.2000   -1.8650 O.2   191  ASN191     -0.2716
    139  ND2      -35.1260   -1.1380   -3.6650 N.am  191  ASN191     -0.0877
    140  N        -30.4430   -0.6990   -2.6220 N.am  192  ILE192     -0.1977
    141  CA       -29.6060   -1.7690   -2.0870 C.3   192  ILE192      0.1596
    142  C        -28.9380   -1.2840   -0.7980 C.2   192  ILE192      0.2287
    143  O        -28.8190   -2.0330    0.1710 O.2   192  ILE192     -0.2864
    144  CB       -28.5390   -2.2180   -3.1090 C.3   192  ILE192      0.0276
    145  CG1      -27.6850   -3.3320   -2.5180 C.3   192  ILE192      0.0022
    146  CG2      -27.6730   -1.0430   -3.5130 C.3   192  ILE192      0.0022
    147  CD1      -26.7360   -3.9580   -3.5180 C.3   192  ILE192      0.0001
    148  N        -35.9100    2.3980  -16.1610 N.3   240  ALA240     -0.1231
    149  CA       -35.8800    2.7800  -14.7530 C.3   240  ALA240      0.1694
    150  C        -34.4510    2.7980  -14.2150 C.2   240  ALA240      0.2591
    151  O        -34.1300    3.5970  -13.3410 O.2   240  ALA240     -0.2718
    152  CB       -36.7360    1.8290  -13.9180 C.3   240  ALA240      0.0304
    153  N        -33.6010    1.9140  -14.7320 N.am  241  ILE241     -0.1980
    154  CA       -32.2110    1.8330  -14.2790 C.3   241  ILE241      0.1595
    155  C        -31.1840    2.1800  -15.3580 C.2   241  ILE241      0.2287
    156  O        -30.0630    1.6690  -15.3500 O.2   241  ILE241     -0.2864
    157  CB       -31.8740    0.4280  -13.7060 C.3   241  ILE241      0.0276
    158  CG1      -32.2540   -0.6710  -14.7010 C.3   241  ILE241      0.0022
    159  CG2      -32.6170    0.2130  -12.3820 C.3   241  ILE241      0.0022
    160  CD1      -31.9340   -2.0730  -14.1940 C.3   241  ILE241      0.0001
    161  N        -29.0410    4.1610  -15.7230 N.3   243  ILE243     -0.1245
    162  CA       -28.1620    5.0280  -14.9480 C.3   243  ILE243      0.1561
    163  C        -26.6980    4.5780  -15.0520 C.2   243  ILE243      0.2260
    164  O        -26.3720    3.4080  -14.8260 O.2   243  ILE243     -0.2867
    165  CB       -28.6410    5.0250  -13.4800 C.3   243  ILE243      0.0252
    166  CG1      -30.1090    5.4620  -13.4400 C.3   243  ILE243      0.0019
    167  CG2      -27.7960    5.9560  -12.6270 C.3   243  ILE243      0.0019
    168  CD1      -30.7500    5.4130  -12.0660 C.3   243  ILE243      0.0001
    169  N        -42.4290   -4.1430  -13.4970 N.3   287  GLU287     -0.1245
    170  CA       -41.8480   -3.5220  -14.6890 C.3   287  GLU287      0.1567
    171  C        -40.5160   -4.1800  -15.0350 C.2   287  GLU287      0.2260
    172  O        -39.9350   -4.8860  -14.2100 O.2   287  GLU287     -0.2867
    173  CB       -41.7010   -1.9950  -14.5360 C.3   287  GLU287      0.0388
    174  CG       -40.7560   -1.4890  -13.4830 C.3   287  GLU287      0.1160
    175  CD       -40.6620    0.0440  -13.5240 C.2   287  GLU287      0.3649
    176  OE1      -39.9150    0.5820  -14.3600 O.co2 287  GLU287     -0.2457
    177  OE2      -41.3560    0.7090  -12.7280 O.co2 287  GLU287     -0.2457
    178  N        -37.3580   -3.2440  -15.2040 N.3   289  ALA289     -0.1231
    179  CA       -36.2360   -3.0550  -14.2820 C.3   289  ALA289      0.1694
    180  C        -36.3870   -3.9850  -13.0770 C.2   289  ALA289      0.2592
    181  O        -35.4160   -4.5750  -12.6210 O.2   289  ALA289     -0.2718
    182  CB       -36.1460   -1.5820  -13.8160 C.3   289  ALA289      0.0304
    183  N        -37.6060   -4.1080  -12.5630 N.am  290  SER290     -0.1952
    184  CA       -37.8620   -4.9880  -11.4210 C.3   290  SER290      0.1924
    185  C        -37.5330   -6.4400  -11.7920 C.2   290  SER290      0.2314
    186  O        -37.0110   -7.2010  -10.9770 O.2   290  SER290     -0.2863
    187  CB       -39.3360   -4.9140  -11.0010 C.3   290  SER290      0.2116
    188  OG       -39.7560   -3.5850  -10.7770 O.3   290  SER290     -0.2180
    189  N        -39.3870   -4.1050   -7.5250 N.3   317  THR317     -0.1203
    190  CA       -39.5060   -2.6560   -7.3990 C.3   317  THR317      0.1994
    191  C        -40.6870   -1.8600   -7.9490 C.2   317  THR317      0.2618
    192  O        -41.1510   -0.9320   -7.2900 O.2   317  THR317     -0.2717
    193  CB       -38.2350   -2.0150   -7.9130 C.3   317  THR317      0.1784
    194  OG1      -37.9560   -2.5120   -9.2280 O.3   317  THR317     -0.2211
    195  CG2      -37.0720   -2.3550   -6.9810 C.3   317  THR317      0.0376
    196  N        -41.1640   -2.1780   -9.1450 N.am  318  GLY318     -0.1956
    197  CA       -42.2750   -1.4160   -9.6790 C.3   318  GLY318      0.1869
    198  C        -43.3440   -2.2610  -10.3350 C.2   318  GLY318      0.2309
    199  O        -43.0690   -3.3680  -10.8030 O.2   318  GLY318     -0.2863
@<TRIPOS>BOND
     1    69    70    1
     2   148   149    1
     3    60    61    1
     4    70    73    1
     5    70    71    1
     6   161   162    1
     7    41    40    2
     8    62    61    1
     9    62    63    2
    10   155   156    2
    11   155   154    1
    12   178   179    1
    13    73    74    1
    14    71    72    2
    15   163   162    1
    16   163   164    2
    17   171   170    1
    18   171   172    2
    19    61    64    1
    20   162   165    1
    21    64    65    1
    22    66    67    1
    23    66    65    1
    24   149   150    1
    25   149   152    1
    26   153   154    1
    27   153   150   am
    28   158   160    1
    29   158   157    1
    30   170   173    1
    31   170   169    1
    32    67    68    1
    33    40    39    1
    34    44    42    1
    35    39    42    1
    36    39    38    1
    37   173   174    1
    38    42    43    1
    39    35    34    2
    40   176   175   ar
    41   179   182    1
    42   179   180    1
    43   154   157    1
    44   150   151    2
    45   157   159    1
    46    74    75   ar
    47    74    76   ar
    48   175   174    1
    49   175   177   ar
    50   165   166    1
    51   165   167    1
    52   166   168    1
    53    34    38   am
    54    34    33    1
    55   180   181    2
    56   180   183   am
    57    75    77   ar
    58    76    78   ar
    59   183   184    1
    60    32    33    1
    61    32    29   am
    62    33    36    1
    63   185   184    1
    64   185   186    2
    65    77    79   ar
    66    45    46    1
    67    78    79   ar
    68    36    37    1
    69   184   187    1
    70    51    50    2
    71    52    50   am
    72    31    28    1
    73   187   188    1
    74   107   106    2
    75    28    29    1
    76    28    27    1
    77    29    30    2
    78    50    49    1
    79   199   198    2
    80   112   113    1
    81   112   111    1
    82   198   197    1
    83    46    49    1
    84    46    47    1
    85   114   113    2
    86   101   102    1
    87   101    98    1
    88   113   115   am
    89   106   111   am
    90   106   105    1
    91   197   196    1
    92   102   103    1
    93   104   105    1
    94   104    99   am
    95    98    99    1
    96    98    97    1
    97   194   193    1
    98   115   116    1
    99   196   191   am
   100    47    53   am
   101    47    48    2
   102   121   120    2
   103    53    54    1
   104   105   108    1
   105    99   100    2
   106   116   119    1
   107   116   117    1
   108   108   109    1
   109   108   110    1
   110   119   120    1
   111   120   122   am
   112    97   103    1
   113    55    54    1
   114    55    56    2
   115   191   190    1
   116   191   192    2
   117   193   190    1
   118   193   195    1
   119    54    57    1
   120    57    58    1
   121    57    59    1
   122     5     6    1
   123     5     2    1
   124   189   190    1
   125    87    85   am
   126    86    85    2
   127   117   123   am
   128   117   118    2
   129    25    26    1
   130    25    24    1
   131   123   124    1
   132    85    84    1
   133     1     2    1
   134     2     3    1
   135    23    24    1
   136    23    22    1
   137    16    17   ar
   138    16    14   ar
   139   124   127    1
   140   124   125    1
   141    17    15   ar
   142    14    12   ar
   143    84    81    1
   144     3     7   am
   145     3     4    2
   146    22    19    1
   147     7     8    1
   148    81    80    1
   149    81    82    1
   150   125   128   am
   151   125   126    2
   152   128   129    1
   153    15    13   ar
   154    12    13   ar
   155    12    11    1
   156    18    19    1
   157    18     9   am
   158    19    20    1
   159   139   137   am
   160     8    11    1
   161     8     9    1
   162   136   137    1
   163   136   133    1
   164   147   145    1
   165   146   144    1
   166    82    83    2
   167     9    10    2
   168   144   145    1
   169   144   141    1
   170   132   133    1
   171   132   130   am
   172   129   130    1
   173   137   138    2
   174    20    21    2
   175   140   141    1
   176   140   134   am
   177   133   134    1
   178   130   131    2
   179   141   142    1
   180   134   135    2
   181    95    94    2
   182    96    94   am
   183    94    93    1
   184   142   143    2
   185    93    92    1
   186    92    89    1
   187    89    90    1
   188    89    88    1
   189    91    90    2
