@<TRIPOS>MOLECULE
tmp/3aezA01.pdb
 192 182 0 0 0
SMALL
GASTEIGER

@<TRIPOS>ATOM
      1  N        -35.7680   36.6320   -0.7100 N.3    94  VAL94      -0.1245
      2  CA       -36.9470   36.0000   -1.2930 C.3    94  VAL94       0.1561
      3  C        -36.6290   35.7730   -2.7800 C.2    94  VAL94       0.2260
      4  O        -35.8830   36.5540   -3.3570 O.2    94  VAL94      -0.2867
      5  CB       -38.1300   36.9890   -1.1220 C.3    94  VAL94       0.0252
      6  CG1      -39.2140   36.8360   -2.1930 C.3    94  VAL94       0.0019
      7  CG2      -38.7120   36.8710    0.3000 C.3    94  VAL94       0.0019
      8  N        -33.4150   29.7780   -2.2320 N.3    98  LYS98      -0.1245
      9  CA       -32.8840   29.1040   -1.0420 C.3    98  LYS98       0.1561
     10  C        -33.5370   27.7300   -0.8990 C.2    98  LYS98       0.2260
     11  O        -32.9010   26.7660   -0.4870 O.2    98  LYS98      -0.2867
     12  CB       -33.1400   29.9160    0.2400 C.3    98  LYS98       0.0271
     13  CG       -32.4810   31.2790    0.3020 C.3    98  LYS98       0.0035
     14  CD       -32.8050   32.0000    1.6130 C.3    98  LYS98       0.0206
     15  CE       -34.3040   32.0810    1.8990 C.3    98  LYS98       0.1093
     16  NZ       -34.9620   32.8660    0.8080 N.3    98  LYS98      -0.1314
     17  N        -37.5800   25.5160    7.9210 N.3   122  THR122     -0.1203
     18  CA       -37.6290   26.8470    7.3470 C.3   122  THR122      0.1994
     19  C        -38.0840   27.7780    8.4500 C.2   122  THR122      0.2619
     20  O        -38.9340   27.4080    9.2470 O.2   122  THR122     -0.2717
     21  CB       -38.6270   26.9560    6.1590 C.3   122  THR122      0.1784
     22  OG1      -39.8720   26.3180    6.4890 O.3   122  THR122     -0.2211
     23  CG2      -38.0220   26.2910    4.8990 C.3   122  THR122      0.0376
     24  N        -37.4960   28.9640    8.5250 N.am  123  THR123     -0.1938
     25  CA       -37.8430   29.8870    9.5900 C.3   123  THR123      0.2028
     26  C        -39.2110   30.5380    9.4050 C.2   123  THR123      0.2642
     27  O        -39.7240   31.1950   10.3200 O.2   123  THR123     -0.2714
     28  CB       -36.7950   30.9830    9.7380 C.3   123  THR123      0.1808
     29  OG1      -36.6440   31.6470    8.4800 O.3   123  THR123     -0.2208
     30  CG2      -35.4890   30.3550   10.1580 C.3   123  THR123      0.0379
     31  N        -39.9020   30.2310    8.3140 N.am  124  ASP124     -0.1971
     32  CA       -41.2080   30.8730    8.1880 C.3   124  ASP124      0.1709
     33  C        -42.2130   30.3360    9.1990 C.2   124  ASP124      0.2293
     34  O        -43.1490   31.0400    9.5320 O.2   124  ASP124     -0.2864
     35  CB       -41.7710   30.8520    6.7720 C.3   124  ASP124      0.1436
     36  CG       -41.8310   29.4540    6.1930 C.2   124  ASP124      0.3671
     37  OD1      -41.5310   28.4780    6.9270 O.co2 124  ASP124     -0.2456
     38  OD2      -42.1830   29.3360    4.9980 O.co2 124  ASP124     -0.2456
     39  N        -42.5430   32.8090   11.9950 N.3   127  LEU127     -0.1245
     40  CA       -43.1990   34.0920   11.8310 C.3   127  LEU127      0.1561
     41  C        -44.2610   34.2000   12.9220 C.2   127  LEU127      0.2260
     42  O        -44.9050   33.2080   13.2540 O.2   127  LEU127     -0.2867
     43  CB       -43.8740   34.2200   10.4570 C.3   127  LEU127      0.0270
     44  CG       -42.9880   34.5560    9.2500 C.3   127  LEU127      0.0019
     45  CD1      -43.7710   34.3100    7.9460 C.3   127  LEU127      0.0001
     46  CD2      -42.5430   36.0020    9.3390 C.3   127  LEU127      0.0001
     47  N        -48.1570   43.6730    9.3900 N.3   139  MET139     -0.1245
     48  CA       -48.7340   42.8130    8.3730 C.3   139  MET139      0.1570
     49  C        -48.0820   43.0240    7.0030 C.2   139  MET139      0.2261
     50  O        -48.2490   42.1960    6.1000 O.2   139  MET139     -0.2867
     51  CB       -50.2410   43.0180    8.2630 C.3   139  MET139      0.0387
     52  CG       -51.0870   42.0960    9.1400 C.3   139  MET139      0.0595
     53  SD       -50.7210   40.3340    8.9950 S.3   139  MET139     -0.1393
     54  CE       -51.4410   40.0390    7.3790 C.3   139  MET139      0.0692
     55  N        -43.7310   41.0200    6.7550 N.3   142  LYS142     -0.1231
     56  CA       -43.3690   39.6180    6.8890 C.3   142  LYS142      0.1693
     57  C        -42.0130   39.4450    6.2480 C.2   142  LYS142      0.2592
     58  O        -41.8040   39.8550    5.1080 O.2   142  LYS142     -0.2718
     59  CB       -44.3850   38.7240    6.1830 C.3   142  LYS142      0.0285
     60  CG       -45.6790   38.5490    6.9750 C.3   142  LYS142      0.0035
     61  CD       -46.5690   37.4930    6.3480 C.3   142  LYS142      0.0206
     62  CE       -47.7630   37.1790    7.2200 C.3   142  LYS142      0.1093
     63  NZ       -48.8630   36.4870    6.4650 N.3   142  LYS142     -0.1314
     64  N        -41.1250   38.7610    6.9580 N.am  143  GLY143     -0.1957
     65  CA       -39.7630   38.5530    6.5090 C.3   143  GLY143      0.1869
     66  C        -38.7610   39.5290    7.0900 C.2   143  GLY143      0.2309
     67  O        -37.5670   39.2330    7.0890 O.2   143  GLY143     -0.2863
     68  N        -40.6140   37.9690   13.2160 N.3   148  TYR148     -0.1241
     69  CA       -40.3530   36.6130   13.6840 C.3   148  TYR148      0.1605
     70  C        -40.3710   36.5340   15.2070 C.2   148  TYR148      0.2264
     71  O        -39.8610   37.4170   15.8840 O.2   148  TYR148     -0.2867
     72  CB       -38.9840   36.1180   13.2080 C.3   148  TYR148      0.0534
     73  CG       -38.8910   35.9550   11.7060 C.ar  148  TYR148     -0.0201
     74  CD1      -38.4180   36.9970   10.9020 C.ar  148  TYR148     -0.0009
     75  CD2      -39.2810   34.7600   11.0970 C.ar  148  TYR148     -0.0009
     76  CE1      -38.3060   36.8400    9.5340 C.ar  148  TYR148      0.0417
     77  CE2      -39.1370   34.5760    9.7240 C.ar  148  TYR148      0.0417
     78  CZ       -38.6980   35.6430    8.9510 C.ar  148  TYR148      0.1957
     79  OH       -38.6440   35.4970    7.5860 O.3   148  TYR148     -0.2866
     80  N        -45.7390   27.3530    8.7160 N.3   172  TYR172     -0.1241
     81  CA       -46.3790   28.4070    7.9290 C.3   172  TYR172      0.1605
     82  C        -46.9420   27.8680    6.5970 C.2   172  TYR172      0.2264
     83  O        -46.2850   27.0990    5.9110 O.2   172  TYR172     -0.2867
     84  CB       -45.3290   29.4810    7.6350 C.3   172  TYR172      0.0534
     85  CG       -45.8640   30.7220    6.9800 C.ar  172  TYR172     -0.0201
     86  CD1      -46.6070   31.6320    7.7080 C.ar  172  TYR172     -0.0009
     87  CD2      -45.6320   30.9870    5.6310 C.ar  172  TYR172     -0.0009
     88  CE1      -47.0920   32.7690    7.1270 C.ar  172  TYR172      0.0417
     89  CE2      -46.1030   32.1390    5.0310 C.ar  172  TYR172      0.0417
     90  CZ       -46.8530   33.0120    5.7900 C.ar  172  TYR172      0.1957
     91  OH       -47.3700   34.1630    5.2510 O.3   172  TYR172     -0.2866
     92  N        -47.9020   29.3110    2.9360 N.3   174  HIS174     -0.1241
     93  CA       -48.0060   30.3640    1.9260 C.3   174  HIS174      0.1621
     94  C        -49.4200   30.4350    1.3650 C.2   174  HIS174      0.2264
     95  O        -50.0160   31.5030    1.2960 O.2   174  HIS174     -0.2867
     96  CB       -47.0170   30.1570    0.7820 C.3   174  HIS174      0.0745
     97  CG       -45.6360   30.6350    1.0930 C.ar  174  HIS174      0.0817
     98  ND1      -44.7400   29.8810    1.8190 N.ar  174  HIS174     -0.2268
     99  CD2      -45.0340   31.8270    0.8730 C.ar  174  HIS174      0.1154
    100  CE1      -43.6300   30.5710    2.0020 C.ar  174  HIS174      0.1986
    101  NE2      -43.7770   31.7490    1.4230 N.ar  174  HIS174     -0.2212
    102  N        -51.4020   31.9870    3.8290 N.3   177  TYR177     -0.1241
    103  CA       -50.8130   33.2430    4.2740 C.3   177  TYR177      0.1605
    104  C        -50.8190   33.4130    5.8020 C.2   177  TYR177      0.2264
    105  O        -51.0480   34.5160    6.3120 O.2   177  TYR177     -0.2867
    106  CB       -51.5210   34.4120    3.5870 C.3   177  TYR177      0.0534
    107  CG       -50.7670   35.7320    3.5960 C.ar  177  TYR177     -0.0201
    108  CD1      -49.5040   35.8650    3.0230 C.ar  177  TYR177     -0.0009
    109  CD2      -51.3330   36.8500    4.1940 C.ar  177  TYR177     -0.0009
    110  CE1      -48.8580   37.1090    2.9810 C.ar  177  TYR177      0.0417
    111  CE2      -50.6810   38.0710    4.2100 C.ar  177  TYR177      0.0417
    112  CZ       -49.4730   38.2110    3.5690 C.ar  177  TYR177      0.1957
    113  OH       -48.9150   39.4710    3.5930 O.3   177  TYR177     -0.2866
    114  N        -33.2080   27.1910    7.1290 N.3   196  GLU196     -0.1231
    115  CA       -33.2400   28.0140    5.9230 C.3   196  GLU196      0.1699
    116  C        -34.1880   29.1920    6.1230 C.2   196  GLU196      0.2593
    117  O        -35.3440   29.0010    6.4880 O.2   196  GLU196     -0.2718
    118  CB       -33.7430   27.1440    4.7630 C.3   196  GLU196      0.0402
    119  CG       -34.1960   27.9330    3.5350 C.3   196  GLU196      0.1161
    120  CD       -35.2560   27.1850    2.7350 C.2   196  GLU196      0.3649
    121  OE1      -35.3480   25.9450    2.8210 O.co2 196  GLU196     -0.2457
    122  OE2      -36.0400   27.8370    2.0290 O.co2 196  GLU196     -0.2457
    123  N        -33.7710   30.3990    5.7550 N.am  197  GLY197     -0.1942
    124  CA       -34.6640   31.5480    5.8490 C.3   197  GLY197      0.2014
    125  C        -33.9210   32.8380    5.5510 C.2   197  GLY197      0.2638
    126  O        -32.7090   32.8510    5.6400 O.2   197  GLY197     -0.2714
    127  N        -34.6420   33.9070    5.2270 N.am  198  LEU198     -0.1977
    128  CA       -34.0670   35.1920    4.8220 C.3   198  LEU198      0.1596
    129  C        -32.9610   35.6410    5.7730 C.2   198  LEU198      0.2287
    130  O        -31.8630   36.0140    5.3520 O.2   198  LEU198     -0.2864
    131  CB       -35.1560   36.2900    4.8280 C.3   198  LEU198      0.0297
    132  CG       -36.4270   35.9810    4.0400 C.3   198  LEU198      0.0022
    133  CD1      -37.4240   37.1370    4.0740 C.3   198  LEU198      0.0001
    134  CD2      -36.0220   35.6440    2.6020 C.3   198  LEU198      0.0001
    135  N        -38.4910   37.3690   -9.0940 N.3   230  TYR230     -0.1241
    136  CA       -39.6580   37.4860   -8.2150 C.3   230  TYR230      0.1605
    137  C        -40.9180   37.7970   -9.0410 C.2   230  TYR230      0.2264
    138  O        -41.9960   37.2150   -8.8450 O.2   230  TYR230     -0.2867
    139  CB       -39.4020   38.5880   -7.1760 C.3   230  TYR230      0.0534
    140  CG       -40.6010   38.8410   -6.2890 C.ar  230  TYR230     -0.0201
    141  CD1      -40.8840   38.0000   -5.2200 C.ar  230  TYR230     -0.0009
    142  CD2      -41.4660   39.8980   -6.5420 C.ar  230  TYR230     -0.0009
    143  CE1      -42.0370   38.1920   -4.4370 C.ar  230  TYR230      0.0417
    144  CE2      -42.5810   40.1330   -5.7430 C.ar  230  TYR230      0.0417
    145  CZ       -42.8570   39.2640   -4.6990 C.ar  230  TYR230      0.1957
    146  OH       -44.0080   39.4080   -3.9660 O.3   230  TYR230     -0.2866
    147  N        -41.9260   34.8780  -11.2440 N.3   233  ARG233     -0.1245
    148  CA       -42.5850   33.8110  -10.4890 C.3   233  ARG233      0.1563
    149  C        -44.0030   34.2150  -10.0610 C.2   233  ARG233      0.2260
    150  O        -44.9220   33.3980  -10.0190 O.2   233  ARG233     -0.2867
    151  CB       -41.7350   33.4140   -9.2770 C.3   233  ARG233      0.0307
    152  CG       -42.3680   32.3400   -8.4150 C.3   233  ARG233      0.0489
    153  CD       -41.4630   31.9610   -7.2180 C.3   233  ARG233      0.2205
    154  NE       -41.4970   33.0450   -6.2350 N.pl3 233  ARG233     -0.0865
    155  CZ       -40.6900   33.1410   -5.1830 C.cat 233  ARG233      0.5346
    156  NH1      -39.8200   32.1750   -4.9160 N.pl3 233  ARG233      0.1354
    157  NH2      -40.8410   34.1550   -4.3430 N.pl3 233  ARG233      0.1354
    158  N        -54.0120   34.8660   -2.3910 N.3   249  PHE249     -0.1241
    159  CA       -53.8550   35.8190   -3.4830 C.3   249  PHE249      0.1605
    160  C        -54.6130   35.3720   -4.7250 C.2   249  PHE249      0.2264
    161  O        -54.2500   35.7050   -5.8500 O.2   249  PHE249     -0.2867
    162  CB       -52.3800   36.0700   -3.7880 C.3   249  PHE249      0.0534
    163  CG       -51.6130   36.6030   -2.6090 C.ar  249  PHE249     -0.0203
    164  CD1      -51.4850   35.8400   -1.4500 C.ar  249  PHE249     -0.0042
    165  CD2      -51.1090   37.8940   -2.6180 C.ar  249  PHE249     -0.0042
    166  CE1      -50.8370   36.3320   -0.3310 C.ar  249  PHE249     -0.0003
    167  CE2      -50.4470   38.3950   -1.5080 C.ar  249  PHE249     -0.0003
    168  CZ       -50.3240   37.6170   -0.3590 C.ar  249  PHE249     -0.0000
    169  N        -44.9480   45.1040   -4.4010 N.3   267  ILE267     -0.1245
    170  CA       -44.5660   44.2390   -3.2840 C.3   267  ILE267      0.1561
    171  C        -43.0510   44.1590   -3.1370 C.2   267  ILE267      0.2260
    172  O        -42.5180   44.2660   -2.0340 O.2   267  ILE267     -0.2867
    173  CB       -45.1630   42.8200   -3.4140 C.3   267  ILE267      0.0252
    174  CG1      -46.6890   42.8970   -3.4460 C.3   267  ILE267      0.0019
    175  CG2      -44.8020   41.9830   -2.1780 C.3   267  ILE267      0.0019
    176  CD1      -47.3910   41.6570   -4.0080 C.3   267  ILE267      0.0001
    177  N        -41.7020   45.7930    0.2900 N.3   271  ILE271     -0.1231
    178  CA       -41.3410   44.7800    1.2800 C.3   271  ILE271      0.1692
    179  C        -39.9730   44.1290    1.0100 C.2   271  ILE271      0.2592
    180  O        -39.0510   44.1640    1.8320 O.2   271  ILE271     -0.2718
    181  CB       -42.4170   43.6640    1.3490 C.3   271  ILE271      0.0266
    182  CG1      -43.7930   44.2370    1.7270 C.3   271  ILE271      0.0019
    183  CG2      -41.9930   42.5980    2.3760 C.3   271  ILE271      0.0020
    184  CD1      -44.9310   43.1780    1.8100 C.3   271  ILE271      0.0001
    185  N        -39.8990   43.3460   -0.0570 N.am  272  ASN272     -0.1974
    186  CA       -38.7300   42.4950   -0.2440 C.3   272  ASN272      0.1688
    187  C        -37.4340   43.2300   -0.5690 C.2   272  ASN272      0.2292
    188  O        -36.3530   42.8090   -0.1640 O.2   272  ASN272     -0.2864
    189  CB       -39.0320   41.4010   -1.2660 C.3   272  ASN272      0.1181
    190  CG       -40.2030   40.5250   -0.8440 C.2   272  ASN272      0.2629
    191  OD1      -40.2980   40.1010    0.3030 O.2   272  ASN272     -0.2716
    192  ND2      -41.0680   40.2050   -1.7900 N.am  272  ASN272     -0.0877
@<TRIPOS>BOND
     1   147   148    1
     2   148   149    1
     3   148   151    1
     4   149   150    2
     5   151   152    1
     6   135   136    1
     7   137   138    2
     8   137   136    1
     9   152   153    1
    10   136   139    1
    11   153   154    1
    12   139   140    1
    13   142   140   ar
    14   142   144   ar
    15   140   141   ar
    16   154   155    2
    17   161   160    2
    18   144   145   ar
    19   141   143   ar
    20   155   156    1
    21   155   157    1
    22   160   159    1
    23   145   143   ar
    24   145   146    1
    25   169   170    1
    26   176   174    1
    27   162   159    1
    28   162   163    1
    29   159   158    1
    30   174   173    1
    31   173   170    1
    32   173   175    1
    33     4     3    2
    34   170   171    1
    35   171   172    2
    36     3     2    1
    37   165   163   ar
    38   165   167   ar
    39   163   164   ar
    40     8     9    1
    41     6     5    1
    42   192   190   am
    43   167   168   ar
    44   164   166   ar
    45     2     5    1
    46     2     1    1
    47   189   190    1
    48   189   186    1
    49     5     7    1
    50     9    10    1
    51     9    12    1
    52    10    11    2
    53   190   191    2
    54   187   186    1
    55   187   188    2
    56   168   166   ar
    57   186   185    1
    58   185   179   am
    59    12    13    1
    60   177   178    1
    61    13    14    1
    62    96    97    1
    63    96    93    1
    64    16    15    1
    65    99    97   ar
    66    99   101   ar
    67   179   178    1
    68   179   180    2
    69    97    98   ar
    70   178   181    1
    71    95    94    2
    72   181   182    1
    73   181   183    1
    74    94    93    1
    75   101   100   ar
    76    14    15    1
    77   182   184    1
    78    98   100   ar
    79    93    92    1
    80   122   120   ar
    81   134   132    1
    82   120   121   ar
    83   120   119    1
    84   110   108   ar
    85   110   112   ar
    86   108   107   ar
    87   119   118    1
    88   112   113    1
    89   112   111   ar
    90   106   107    1
    91   106   103    1
    92   107   109   ar
    93   102   103    1
    94   132   133    1
    95   132   131    1
    96   109   111   ar
    97   103   104    1
    98   118   115    1
    99   128   131    1
   100   128   127    1
   101   128   129    1
   102    23    21    1
   103    38    36   ar
   104    89    87   ar
   105    89    90   ar
   106    58    57    2
   107   127   125   am
   108    91    90    1
   109   130   129    2
   110   125   126    2
   111   125   124    1
   112    87    85   ar
   113   123   124    1
   114   123   116   am
   115    90    88   ar
   116   104   105    2
   117    83    82    2
   118   115   116    1
   119   115   114    1
   120    50    49    2
   121   116   117    2
   122    21    22    1
   123    21    18    1
   124    59    56    1
   125    59    60    1
   126    36    35    1
   127    36    37   ar
   128    57    56    1
   129    57    64   am
   130    61    60    1
   131    61    62    1
   132    63    62    1
   133    65    64    1
   134    65    66    1
   135    82    81    1
   136    55    56    1
   137    35    32    1
   138    85    84    1
   139    85    86   ar
   140    49    48    1
   141    67    66    2
   142    88    86   ar
   143    18    17    1
   144    18    19    1
   145    54    53    1
   146    79    78    1
   147    84    81    1
   148    81    80    1
   149    45    44    1
   150    32    31    1
   151    32    33    1
   152    51    48    1
   153    51    52    1
   154    31    26   am
   155    48    47    1
   156    19    24   am
   157    19    20    2
   158    29    28    1
   159    24    25    1
   160    78    76   ar
   161    78    77   ar
   162    53    52    1
   163    33    34    2
   164    44    46    1
   165    44    43    1
   166    26    25    1
   167    26    27    2
   168    76    74   ar
   169    25    28    1
   170    77    75   ar
   171    28    30    1
   172    43    40    1
   173    74    73   ar
   174    75    73   ar
   175    73    72    1
   176    40    39    1
   177    40    41    1
   178    41    42    2
   179    72    69    1
   180    68    69    1
   181    69    70    1
   182    70    71    2
