@<TRIPOS>MOLECULE
tmp/3aezA00.pdb
 161 152 0 0 0
SMALL
GASTEIGER

@<TRIPOS>ATOM
      1  N        -37.5890   24.0870   -7.2170 N.3    34  GLY34      -0.1210
      2  CA       -38.6600   25.0480   -7.0040 C.3    34  GLY34       0.1956
      3  C        -39.1540   25.6860   -8.2940 C.2    34  GLY34       0.2611
      4  O        -38.4080   25.7880   -9.2830 O.2    34  GLY34      -0.2717
      5  N        -40.3660   26.2320   -8.2380 N.am   35  LEU35      -0.1979
      6  CA       -40.9010   26.9860   -9.3660 C.3    35  LEU35       0.1596
      7  C        -39.9300   28.0760   -9.7820 C.2    35  LEU35       0.2287
      8  O        -39.5140   28.8990   -8.9570 O.2    35  LEU35      -0.2864
      9  CB       -42.2900   27.5630   -9.0740 C.3    35  LEU35       0.0297
     10  CG       -43.0660   28.0390  -10.3100 C.3    35  LEU35       0.0022
     11  CD1      -43.3230   26.9150  -11.3430 C.3    35  LEU35       0.0001
     12  CD2      -44.3990   28.6430   -9.8760 C.3    35  LEU35       0.0001
     13  N        -32.1680   36.4120   -0.2010 N.3    93  SER93      -0.1202
     14  CA       -33.3990   37.0800   -0.5830 C.3    93  SER93       0.2020
     15  C        -34.5490   36.1200   -0.8370 C.2    93  SER93       0.2619
     16  O        -34.3480   34.9590   -1.1740 O.2    93  SER93      -0.2717
     17  CB       -33.1630   37.8920   -1.8710 C.3    93  SER93       0.2103
     18  OG       -34.3110   38.6560   -2.2290 O.3    93  SER93      -0.2182
     19  N        -35.7680   36.6320   -0.7100 N.am   94  VAL94      -0.1965
     20  CA       -36.9470   36.0000   -1.2930 C.3    94  VAL94       0.1727
     21  C        -36.6290   35.7730   -2.7800 C.2    94  VAL94       0.2616
     22  O        -35.8830   36.5540   -3.3570 O.2    94  VAL94      -0.2715
     23  CB       -38.1300   36.9890   -1.1220 C.3    94  VAL94       0.0290
     24  CG1      -39.2140   36.8360   -2.1930 C.3    94  VAL94       0.0023
     25  CG2      -38.7120   36.8710    0.3000 C.3    94  VAL94       0.0023
     26  N        -37.0730   34.6570   -3.3530 N.am   95  ALA95      -0.1977
     27  CA       -37.0320   34.4210   -4.8060 C.3    95  ALA95       0.1597
     28  C        -35.6480   34.0500   -5.3290 C.2    95  ALA95       0.2287
     29  O        -35.4650   33.9490   -6.5320 O.2    95  ALA95      -0.2864
     30  CB       -37.5880   35.6420   -5.6020 C.3    95  ALA95       0.0319
     31  N        -33.9860   31.3750   -4.5730 N.3    97  GLY97      -0.1210
     32  CA       -33.8260   29.9240   -4.6570 C.3    97  GLY97       0.1956
     33  C        -33.2860   29.1970   -3.4280 C.2    97  GLY97       0.2612
     34  O        -32.7730   28.0750   -3.5490 O.2    97  GLY97      -0.2717
     35  N        -33.4150   29.7780   -2.2320 N.am   98  LYS98      -0.1965
     36  CA       -32.8840   29.1040   -1.0420 C.3    98  LYS98       0.1728
     37  C        -33.5370   27.7300   -0.8990 C.2    98  LYS98       0.2616
     38  O        -32.9010   26.7660   -0.4870 O.2    98  LYS98      -0.2715
     39  CB       -33.1400   29.9160    0.2400 C.3    98  LYS98       0.0311
     40  CG       -32.4810   31.2790    0.3020 C.3    98  LYS98       0.0038
     41  CD       -32.8050   32.0000    1.6130 C.3    98  LYS98       0.0206
     42  CE       -34.3040   32.0810    1.8990 C.3    98  LYS98       0.1093
     43  NZ       -34.9620   32.8660    0.8080 N.3    98  LYS98      -0.1314
     44  N        -34.8370   27.6440   -1.1540 N.am   99  SER99      -0.1950
     45  CA       -35.5170   26.3970   -0.8350 C.3    99  SER99       0.1924
     46  C        -34.9910   25.2490   -1.7120 C.2    99  SER99       0.2314
     47  O        -34.9150   24.1190   -1.2390 O.2    99  SER99      -0.2863
     48  CB       -37.0370   26.5520   -0.9160 C.3    99  SER99       0.2116
     49  OG       -37.4030   27.1540   -2.1460 O.3    99  SER99      -0.2180
     50  N        -33.0580   21.9370   -0.1870 N.3   103  ARG103     -0.1245
     51  CA       -33.6070   20.6060   -0.5030 C.3   103  ARG103      0.1563
     52  C        -32.5550   19.7490   -1.2080 C.2   103  ARG103      0.2260
     53  O        -32.3510   18.5870   -0.8620 O.2   103  ARG103     -0.2867
     54  CB       -34.8900   20.7010   -1.3470 C.3   103  ARG103      0.0307
     55  CG       -36.1430   20.9140   -0.5120 C.3   103  ARG103      0.0489
     56  CD       -37.4400   20.8820   -1.3500 C.3   103  ARG103      0.2205
     57  NE       -37.3470   21.7920   -2.4930 N.pl3 103  ARG103     -0.0865
     58  CZ       -38.0070   22.9390   -2.6110 C.cat 103  ARG103      0.5346
     59  NH1      -38.8710   23.3150   -1.6760 N.pl3 103  ARG103      0.1354
     60  NH2      -37.8030   23.7010   -3.6740 N.pl3 103  ARG103      0.1354
     61  N        -39.9020   30.2310    8.3140 N.3   124  ASP124     -0.1239
     62  CA       -41.2080   30.8730    8.1880 C.3   124  ASP124      0.1674
     63  C        -42.2130   30.3360    9.1990 C.2   124  ASP124      0.2266
     64  O        -43.1490   31.0400    9.5320 O.2   124  ASP124     -0.2867
     65  CB       -41.7710   30.8520    6.7720 C.3   124  ASP124      0.1410
     66  CG       -41.8310   29.4540    6.1930 C.2   124  ASP124      0.3668
     67  OD1      -41.5310   28.4780    6.9270 O.co2 124  ASP124     -0.2456
     68  OD2      -42.1830   29.3360    4.9980 O.co2 124  ASP124     -0.2456
     69  N        -47.9020   29.3110    2.9360 N.3   174  HIS174     -0.1226
     70  CA       -48.0060   30.3640    1.9260 C.3   174  HIS174      0.1752
     71  C        -49.4200   30.4350    1.3650 C.2   174  HIS174      0.2595
     72  O        -50.0160   31.5030    1.2960 O.2   174  HIS174     -0.2718
     73  CB       -47.0170   30.1570    0.7820 C.3   174  HIS174      0.0759
     74  CG       -45.6360   30.6350    1.0930 C.ar  174  HIS174      0.0818
     75  ND1      -44.7400   29.8810    1.8190 N.ar  174  HIS174     -0.2268
     76  CD2      -45.0340   31.8270    0.8730 C.ar  174  HIS174      0.1154
     77  CE1      -43.6300   30.5710    2.0020 C.ar  174  HIS174      0.1986
     78  NE2      -43.7770   31.7490    1.4230 N.ar  174  HIS174     -0.2212
     79  N        -50.0130   29.2820    1.1040 N.am  175  LEU175     -0.1980
     80  CA       -51.2830   29.2920    0.4010 C.3   175  LEU175      0.1596
     81  C        -52.2980   30.0600    1.2540 C.2   175  LEU175      0.2287
     82  O        -52.9480   30.9680    0.7500 O.2   175  LEU175     -0.2864
     83  CB       -51.7620   27.8700    0.1170 C.3   175  LEU175      0.0297
     84  CG       -53.1150   27.8060   -0.6110 C.3   175  LEU175      0.0022
     85  CD1      -52.9600   28.2550   -2.0580 C.3   175  LEU175      0.0001
     86  CD2      -53.6730   26.3990   -0.5510 C.3   175  LEU175      0.0001
     87  N        -33.2080   27.1910    7.1290 N.3   196  GLU196     -0.1245
     88  CA       -33.2400   28.0140    5.9230 C.3   196  GLU196      0.1567
     89  C        -34.1880   29.1920    6.1230 C.2   196  GLU196      0.2260
     90  O        -35.3440   29.0010    6.4880 O.2   196  GLU196     -0.2867
     91  CB       -33.7430   27.1440    4.7630 C.3   196  GLU196      0.0388
     92  CG       -34.1960   27.9330    3.5350 C.3   196  GLU196      0.1160
     93  CD       -35.2560   27.1850    2.7350 C.2   196  GLU196      0.3649
     94  OE1      -35.3480   25.9450    2.8210 O.co2 196  GLU196     -0.2457
     95  OE2      -36.0400   27.8370    2.0290 O.co2 196  GLU196     -0.2457
     96  N        -34.6420   33.9070    5.2270 N.3   198  LEU198     -0.1245
     97  CA       -34.0670   35.1920    4.8220 C.3   198  LEU198      0.1561
     98  C        -32.9610   35.6410    5.7730 C.2   198  LEU198      0.2260
     99  O        -31.8630   36.0140    5.3520 O.2   198  LEU198     -0.2867
    100  CB       -35.1560   36.2900    4.8280 C.3   198  LEU198      0.0270
    101  CG       -36.4270   35.9810    4.0400 C.3   198  LEU198      0.0019
    102  CD1      -37.4240   37.1370    4.0740 C.3   198  LEU198      0.0001
    103  CD2      -36.0220   35.6440    2.6020 C.3   198  LEU198      0.0001
    104  N        -38.4910   37.3690   -9.0940 N.3   230  TYR230     -0.1241
    105  CA       -39.6580   37.4860   -8.2150 C.3   230  TYR230      0.1605
    106  C        -40.9180   37.7970   -9.0410 C.2   230  TYR230      0.2264
    107  O        -41.9960   37.2150   -8.8450 O.2   230  TYR230     -0.2867
    108  CB       -39.4020   38.5880   -7.1760 C.3   230  TYR230      0.0534
    109  CG       -40.6010   38.8410   -6.2890 C.ar  230  TYR230     -0.0201
    110  CD1      -40.8840   38.0000   -5.2200 C.ar  230  TYR230     -0.0009
    111  CD2      -41.4660   39.8980   -6.5420 C.ar  230  TYR230     -0.0009
    112  CE1      -42.0370   38.1920   -4.4370 C.ar  230  TYR230      0.0417
    113  CE2      -42.5810   40.1330   -5.7430 C.ar  230  TYR230      0.0417
    114  CZ       -42.8570   39.2640   -4.6990 C.ar  230  TYR230      0.1957
    115  OH       -44.0080   39.4080   -3.9660 O.3   230  TYR230     -0.2866
    116  N        -41.9260   34.8780  -11.2440 N.3   233  ARG233     -0.1245
    117  CA       -42.5850   33.8110  -10.4890 C.3   233  ARG233      0.1563
    118  C        -44.0030   34.2150  -10.0610 C.2   233  ARG233      0.2260
    119  O        -44.9220   33.3980  -10.0190 O.2   233  ARG233     -0.2867
    120  CB       -41.7350   33.4140   -9.2770 C.3   233  ARG233      0.0307
    121  CG       -42.3680   32.3400   -8.4150 C.3   233  ARG233      0.0489
    122  CD       -41.4630   31.9610   -7.2180 C.3   233  ARG233      0.2205
    123  NE       -41.4970   33.0450   -6.2350 N.pl3 233  ARG233     -0.0865
    124  CZ       -40.6900   33.1410   -5.1830 C.cat 233  ARG233      0.5346
    125  NH1      -39.8200   32.1750   -4.9160 N.pl3 233  ARG233      0.1354
    126  NH2      -40.8410   34.1550   -4.3430 N.pl3 233  ARG233      0.1354
    127  N        -47.3860   32.1800  -10.9990 N.3   237  MET237     -0.1245
    128  CA       -48.2270   31.5820   -9.9660 C.3   237  MET237      0.1570
    129  C        -49.6970   31.8660  -10.2010 C.2   237  MET237      0.2261
    130  O        -50.5480   31.1660   -9.6580 O.2   237  MET237     -0.2867
    131  CB       -47.8210   32.0030   -8.5430 C.3   237  MET237      0.0387
    132  CG       -46.5200   31.3560   -8.0470 C.3   237  MET237      0.0595
    133  SD       -46.1090   31.9230   -6.3680 S.3   237  MET237     -0.1393
    134  CE       -45.0690   30.5560   -5.8590 C.3   237  MET237      0.0692
    135  N        -50.2590   28.2910   -7.8390 N.3   241  ALA241     -0.1231
    136  CA       -50.8330   28.5600   -6.5180 C.3   241  ALA241      0.1694
    137  C        -52.0000   29.5410   -6.5010 C.2   241  ALA241      0.2592
    138  O        -52.9800   29.2610   -5.8150 O.2   241  ALA241     -0.2718
    139  CB       -49.7570   28.9830   -5.5090 C.3   241  ALA241      0.0304
    140  N        -51.9340   30.6800   -7.2000 N.am  242  PHE242     -0.1976
    141  CA       -53.0060   31.6590   -7.0270 C.3   242  PHE242      0.1639
    142  C        -54.3230   31.1960   -7.6260 C.2   242  PHE242      0.2290
    143  O        -55.3550   31.8390   -7.3810 O.2   242  PHE242     -0.2864
    144  CB       -52.7220   33.0560   -7.5970 C.3   242  PHE242      0.0560
    145  CG       -51.3980   33.6530   -7.2050 C.ar  242  PHE242     -0.0200
    146  CD1      -50.8040   33.3650   -5.9870 C.ar  242  PHE242     -0.0042
    147  CD2      -50.8100   34.6210   -8.0200 C.ar  242  PHE242     -0.0042
    148  CE1      -49.5820   33.9240   -5.6500 C.ar  242  PHE242     -0.0003
    149  CE2      -49.6480   35.2580   -7.6360 C.ar  242  PHE242     -0.0003
    150  CZ       -49.0390   34.9240   -6.4300 C.ar  242  PHE242     -0.0000
    151  N        -54.0120   34.8660   -2.3910 N.3   249  PHE249     -0.1241
    152  CA       -53.8550   35.8190   -3.4830 C.3   249  PHE249      0.1605
    153  C        -54.6130   35.3720   -4.7250 C.2   249  PHE249      0.2264
    154  O        -54.2500   35.7050   -5.8500 O.2   249  PHE249     -0.2867
    155  CB       -52.3800   36.0700   -3.7880 C.3   249  PHE249      0.0534
    156  CG       -51.6130   36.6030   -2.6090 C.ar  249  PHE249     -0.0203
    157  CD1      -51.4850   35.8400   -1.4500 C.ar  249  PHE249     -0.0042
    158  CD2      -51.1090   37.8940   -2.6180 C.ar  249  PHE249     -0.0042
    159  CE1      -50.8370   36.3320   -0.3310 C.ar  249  PHE249     -0.0003
    160  CE2      -50.4470   38.3950   -1.5080 C.ar  249  PHE249     -0.0003
    161  CZ       -50.3240   37.6170   -0.3590 C.ar  249  PHE249     -0.0000
@<TRIPOS>BOND
     1    11    10    1
     2   116   117    1
     3   127   128    1
     4   117   118    1
     5   117   120    1
     6    10    12    1
     7    10     9    1
     8   129   128    1
     9   129   130    2
    10   118   119    2
    11   128   131    1
    12     7     6    1
    13     7     8    2
    14     6     9    1
    15     6     5    1
    16     4     3    2
    17   120   121    1
    18   104   105    1
    19   106   107    2
    20   106   105    1
    21   131   132    1
    22   121   122    1
    23     3     5   am
    24     3     2    1
    25   105   108    1
    26   132   133    1
    27   147   149   ar
    28   147   145   ar
    29   135   136    1
    30   149   150   ar
    31   142   143    2
    32   142   141    1
    33   144   145    1
    34   144   141    1
    35   122   123    1
    36     1     2    1
    37   145   146   ar
    38   140   141    1
    39   140   137   am
    40   108   109    1
    41   111   109   ar
    42   111   113   ar
    43    29    28    2
    44   136   137    1
    45   136   139    1
    46   137   138    2
    47   150   148   ar
    48   133   134    1
    49   109   110   ar
    50   123   124    2
    51   146   148   ar
    52   154   153    2
    53   113   114   ar
    54    30    27    1
    55    28    27    1
    56   110   112   ar
    57   124   125    1
    58   124   126    1
    59    27    26    1
    60   153   152    1
    61   114   112   ar
    62   114   115    1
    63    32    31    1
    64    32    33    1
    65   155   152    1
    66   155   156    1
    67    60    58    1
    68    34    33    2
    69   152   151    1
    70    33    35   am
    71    22    21    2
    72    26    21   am
    73    21    20    1
    74   158   156   ar
    75   158   160   ar
    76    58    57    2
    77    58    59    1
    78   156   157   ar
    79    57    56    1
    80    35    36    1
    81    18    17    1
    82    24    23    1
    83    49    48    1
    84    85    84    1
    85    17    14    1
    86    46    47    2
    87    46    45    1
    88   160   161   ar
    89   157   159   ar
    90    56    55    1
    91    54    55    1
    92    54    51    1
    93    20    23    1
    94    20    19    1
    95    52    53    2
    96    52    51    1
    97    16    15    2
    98    44    37   am
    99    44    45    1
   100    23    25    1
   101    36    37    1
   102    36    39    1
   103    48    45    1
   104    37    38    2
   105    15    19   am
   106    15    14    1
   107    84    86    1
   108    84    83    1
   109    14    13    1
   110    51    50    1
   111   161   159   ar
   112    83    80    1
   113    39    40    1
   114    40    41    1
   115    80    79    1
   116    80    81    1
   117    82    81    2
   118    73    74    1
   119    73    70    1
   120    43    42    1
   121    76    74   ar
   122    76    78   ar
   123    74    75   ar
   124    79    71   am
   125    72    71    2
   126    71    70    1
   127    78    77   ar
   128    41    42    1
   129    75    77   ar
   130    70    69    1
   131    95    93   ar
   132   103   101    1
   133    93    94   ar
   134    93    92    1
   135    92    91    1
   136   101   102    1
   137   101   100    1
   138    91    88    1
   139    97   100    1
   140    97    96    1
   141    97    98    1
   142    68    66   ar
   143    99    98    2
   144    88    89    1
   145    88    87    1
   146    89    90    2
   147    66    65    1
   148    66    67   ar
   149    65    62    1
   150    62    61    1
   151    62    63    1
   152    63    64    2
