@<TRIPOS>MOLECULE
tmp/3af3A01.pdb
 104 100 0 0 0
SMALL
GASTEIGER

@<TRIPOS>ATOM
      1  N        -35.6380   36.5710   -0.8040 N.3    94  VAL94      -0.1231
      2  CA       -36.7900   36.0040   -1.4870 C.3    94  VAL94       0.1692
      3  C        -36.4160   35.8860   -2.9640 C.2    94  VAL94       0.2591
      4  O        -35.7880   36.8000   -3.5090 O.2    94  VAL94      -0.2718
      5  CB       -37.9780   36.9840   -1.3330 C.3    94  VAL94       0.0266
      6  CG1      -39.1390   36.6190   -2.2580 C.3    94  VAL94       0.0020
      7  CG2      -38.4760   36.9710    0.1160 C.3    94  VAL94       0.0020
      8  N        -36.7920   34.7700   -3.5870 N.am   95  ALA95      -0.1980
      9  CA       -36.7370   34.5860   -5.0490 C.3    95  ALA95       0.1597
     10  C        -35.3460   34.3270   -5.6110 C.2    95  ALA95       0.2287
     11  O        -35.1740   34.3080   -6.8280 O.2    95  ALA95      -0.2864
     12  CB       -37.3570   35.7490   -5.7820 C.3    95  ALA95       0.0319
     13  N        -51.2400   31.5320    3.5700 N.3   177  TYR177     -0.1241
     14  CA       -50.5690   32.7640    3.9550 C.3   177  TYR177      0.1605
     15  C        -50.6820   32.9570    5.4760 C.2   177  TYR177      0.2264
     16  O        -50.8220   34.0750    5.9720 O.2   177  TYR177     -0.2867
     17  CB       -51.2310   33.9270    3.2020 C.3   177  TYR177      0.0534
     18  CG       -50.5240   35.2710    3.2560 C.ar  177  TYR177     -0.0201
     19  CD1      -49.1900   35.4050    2.8950 C.ar  177  TYR177     -0.0009
     20  CD2      -51.2160   36.4180    3.6360 C.ar  177  TYR177     -0.0009
     21  CE1      -48.5570   36.6480    2.9140 C.ar  177  TYR177      0.0417
     22  CE2      -50.6000   37.6630    3.6530 C.ar  177  TYR177      0.0417
     23  CZ       -49.2730   37.7700    3.3040 C.ar  177  TYR177      0.1957
     24  OH       -48.6810   39.0160    3.3310 O.3   177  TYR177     -0.2866
     25  N        -38.1200   37.6680   -9.3350 N.3   230  TYR230     -0.1241
     26  CA       -39.2790   37.7310   -8.4420 C.3   230  TYR230      0.1605
     27  C        -40.5300   38.0740   -9.2480 C.2   230  TYR230      0.2264
     28  O        -41.5820   37.4510   -9.1200 O.2   230  TYR230     -0.2867
     29  CB       -39.0650   38.7460   -7.3100 C.3   230  TYR230      0.0534
     30  CG       -40.3320   38.9960   -6.5250 C.ar  230  TYR230     -0.0201
     31  CD1      -40.7330   38.1150   -5.5260 C.ar  230  TYR230     -0.0009
     32  CD2      -41.1480   40.0830   -6.8100 C.ar  230  TYR230     -0.0009
     33  CE1      -41.9140   38.3070   -4.8230 C.ar  230  TYR230      0.0417
     34  CE2      -42.3360   40.2800   -6.1200 C.ar  230  TYR230      0.0417
     35  CZ       -42.7060   39.3930   -5.1290 C.ar  230  TYR230      0.1957
     36  OH       -43.8880   39.5610   -4.4570 O.3   230  TYR230     -0.2866
     37  N        -41.5520   35.1410  -11.4840 N.3   233  ARG233     -0.1231
     38  CA       -42.2030   34.0720  -10.7140 C.3   233  ARG233      0.1694
     39  C        -43.6440   34.4500  -10.3700 C.2   233  ARG233      0.2592
     40  O        -44.5430   33.6180  -10.3670 O.2   233  ARG233     -0.2718
     41  CB       -41.4280   33.8310   -9.4170 C.3   233  ARG233      0.0321
     42  CG       -41.4070   32.4200   -8.8870 C.3   233  ARG233      0.0489
     43  CD       -40.2850   32.2590   -7.8430 C.3   233  ARG233      0.2205
     44  NE       -40.8370   32.0370   -6.5080 N.pl3 233  ARG233     -0.0865
     45  CZ       -41.2750   30.8550   -6.0820 C.cat 233  ARG233      0.5346
     46  NH1      -41.1510   29.7770   -6.8530 N.pl3 233  ARG233      0.1354
     47  NH2      -41.8240   30.7380   -4.8780 N.pl3 233  ARG233      0.1354
     48  N        -43.8620   35.7050  -10.0100 N.am  234  PHE234     -0.1976
     49  CA       -45.1960   36.1590   -9.6450 C.3   234  PHE234      0.1639
     50  C        -46.1250   35.9580  -10.8540 C.2   234  PHE234      0.2290
     51  O        -47.2630   35.5080  -10.6980 O.2   234  PHE234     -0.2864
     52  CB       -45.1130   37.6500   -9.2870 C.3   234  PHE234      0.0560
     53  CG       -46.3990   38.2430   -8.7600 C.ar  234  PHE234     -0.0200
     54  CD1      -46.5980   38.4030   -7.4010 C.ar  234  PHE234     -0.0042
     55  CD2      -47.3840   38.7050   -9.6200 C.ar  234  PHE234     -0.0042
     56  CE1      -47.7590   38.9810   -6.9120 C.ar  234  PHE234     -0.0003
     57  CE2      -48.5690   39.2570   -9.1380 C.ar  234  PHE234     -0.0003
     58  CZ       -48.7570   39.4060   -7.7810 C.ar  234  PHE234     -0.0000
     59  N        -46.9820   32.4030  -11.3790 N.3   237  MET237     -0.1245
     60  CA       -47.8190   31.8050  -10.3370 C.3   237  MET237      0.1570
     61  C        -49.2990   32.0420  -10.5420 C.2   237  MET237      0.2261
     62  O        -50.1220   31.3330   -9.9580 O.2   237  MET237     -0.2867
     63  CB       -47.3890   32.2730   -8.9500 C.3   237  MET237      0.0387
     64  CG       -46.2600   31.4190   -8.4260 C.3   237  MET237      0.0595
     65  SD       -45.4460   32.1440   -7.0020 S.3   237  MET237     -0.1393
     66  CE       -46.3800   31.3680   -5.6940 C.3   237  MET237      0.0692
     67  N        -51.6080   30.7960   -7.4040 N.3   242  PHE242     -0.1241
     68  CA       -52.7580   31.6920   -7.3070 C.3   242  PHE242      0.1605
     69  C        -54.0090   31.1450   -7.9720 C.2   242  PHE242      0.2264
     70  O        -55.1110   31.6480   -7.7190 O.2   242  PHE242     -0.2867
     71  CB       -52.4690   33.0920   -7.8550 C.3   242  PHE242      0.0534
     72  CG       -51.1590   33.6960   -7.3920 C.ar  242  PHE242     -0.0203
     73  CD1      -50.6250   33.3850   -6.1520 C.ar  242  PHE242     -0.0042
     74  CD2      -50.4960   34.6240   -8.1860 C.ar  242  PHE242     -0.0042
     75  CE1      -49.4500   33.9820   -5.7070 C.ar  242  PHE242     -0.0003
     76  CE2      -49.3100   35.2160   -7.7590 C.ar  242  PHE242     -0.0003
     77  CZ       -48.7870   34.8970   -6.5110 C.ar  242  PHE242     -0.0000
     78  N        -54.2120   34.4100   -2.3470 N.3   249  PHE249     -0.1241
     79  CA       -53.8860   35.3940   -3.3720 C.3   249  PHE249      0.1605
     80  C        -54.5940   35.0760   -4.6900 C.2   249  PHE249      0.2264
     81  O        -54.1780   35.5230   -5.7600 O.2   249  PHE249     -0.2867
     82  CB       -52.3770   35.3720   -3.6000 C.3   249  PHE249      0.0534
     83  CG       -51.5870   35.9950   -2.4890 C.ar  249  PHE249     -0.0203
     84  CD1      -51.5490   37.3740   -2.3400 C.ar  249  PHE249     -0.0042
     85  CD2      -50.8910   35.1980   -1.5860 C.ar  249  PHE249     -0.0042
     86  CE1      -50.8240   37.9490   -1.3230 C.ar  249  PHE249     -0.0003
     87  CE2      -50.1560   35.7650   -0.5630 C.ar  249  PHE249     -0.0003
     88  CZ       -50.1200   37.1440   -0.4350 C.ar  249  PHE249     -0.0000
     89  N        -44.7710   45.1640   -4.4490 N.3   267  ILE267     -0.1245
     90  CA       -44.3700   44.2740   -3.3740 C.3   267  ILE267      0.1561
     91  C        -42.8530   44.1820   -3.2300 C.2   267  ILE267      0.2260
     92  O        -42.3290   44.2710   -2.1160 O.2   267  ILE267     -0.2867
     93  CB       -44.9680   42.8700   -3.5170 C.3   267  ILE267      0.0252
     94  CG1      -46.4900   42.9400   -3.4610 C.3   267  ILE267      0.0019
     95  CG2      -44.5150   41.9890   -2.3530 C.3   267  ILE267      0.0019
     96  CD1      -47.1890   41.7720   -4.1400 C.3   267  ILE267      0.0001
     97  N        -39.7750   43.4350   -0.1270 N.3   272  ASN272     -0.1240
     98  CA       -38.6390   42.5250   -0.2830 C.3   272  ASN272      0.1653
     99  C        -37.3150   43.2160   -0.5290 C.2   272  ASN272      0.2266
    100  O        -36.2480   42.7300   -0.1100 O.2   272  ASN272     -0.2867
    101  CB       -38.8910   41.5180   -1.4090 C.3   272  ASN272      0.1155
    102  CG       -40.0890   40.6230   -1.1190 C.2   272  ASN272      0.2627
    103  OD1      -40.8710   40.3040   -2.0060 O.2   272  ASN272     -0.2716
    104  ND2      -40.2430   40.2510    0.1380 N.am  272  ASN272     -0.0877
@<TRIPOS>BOND
     1    37    38    1
     2    59    60    1
     3    50    51    2
     4    50    49    1
     5    38    39    1
     6    38    41    1
     7    61    60    1
     8    61    62    2
     9    39    40    2
    10    39    48   am
    11    60    63    1
    12    48    49    1
    13    49    52    1
    14    55    57   ar
    15    55    53   ar
    16    41    42    1
    17    25    26    1
    18    52    53    1
    19    27    28    2
    20    27    26    1
    21    57    58   ar
    22    63    64    1
    23    42    43    1
    24    53    54   ar
    25    26    29    1
    26    64    65    1
    27    74    76   ar
    28    74    72   ar
    29    69    70    2
    30    69    68    1
    31    71    72    1
    32    71    68    1
    33    43    44    1
    34    58    56   ar
    35    76    77   ar
    36    67    68    1
    37    54    56   ar
    38    72    73   ar
    39    29    30    1
    40    65    66    1
    41    46    45    1
    42    11    10    2
    43    32    30   ar
    44    32    34   ar
    45    30    31   ar
    46    77    75   ar
    47    44    45    2
    48    73    75   ar
    49    34    35   ar
    50    45    47    1
    51    12     9    1
    52    81    80    2
    53    10     9    1
    54    31    33   ar
    55    35    33   ar
    56    35    36    1
    57     9     8    1
    58    80    79    1
    59    89    90    1
    60    96    94    1
    61    82    79    1
    62    82    83    1
    63     8     3   am
    64    93    94    1
    65    93    90    1
    66    93    95    1
    67     4     3    2
    68    90    91    1
    69    79    78    1
    70    91    92    2
    71     3     2    1
    72    83    84   ar
    73    83    85   ar
    74    84    86   ar
    75     6     5    1
    76   103   102    2
    77    85    87   ar
    78     2     5    1
    79     2     1    1
    80   101   102    1
    81   101    98    1
    82     5     7    1
    83    86    88   ar
    84   102   104   am
    85    87    88   ar
    86    99    98    1
    87    99   100    2
    88    98    97    1
    89    19    21   ar
    90    19    18   ar
    91    21    23   ar
    92    17    18    1
    93    17    14    1
    94    18    20   ar
    95    23    24    1
    96    23    22   ar
    97    13    14    1
    98    20    22   ar
    99    14    15    1
   100    15    16    2
