@<TRIPOS>MOLECULE
tmp/3af3A00.pdb
 150 142 0 0 0
SMALL
GASTEIGER

@<TRIPOS>ATOM
      1  N        -36.6310   21.1560   -7.3560 N.3    33  ARG33      -0.1231
      2  CA       -36.3930   22.3980   -8.0850 C.3    33  ARG33       0.1694
      3  C        -37.6190   23.3010   -7.9720 C.2    33  ARG33       0.2593
      4  O        -38.7450   22.8510   -8.1920 O.2    33  ARG33      -0.2718
      5  CB       -36.2120   22.0070   -9.5520 C.3    33  ARG33       0.0321
      6  CG       -35.8970   23.0860  -10.5610 C.3    33  ARG33       0.0489
      7  CD       -35.0840   22.4380  -11.6720 C.3    33  ARG33       0.2205
      8  NE       -35.2760   23.0620  -12.9780 N.pl3  33  ARG33      -0.0865
      9  CZ       -35.2900   22.3820  -14.1230 C.cat  33  ARG33       0.5346
     10  NH1      -35.1350   21.0610  -14.0850 N.pl3  33  ARG33       0.1354
     11  NH2      -35.4770   23.0080  -15.2850 N.pl3  33  ARG33       0.1354
     12  N        -37.4020   24.5720   -7.6460 N.am   34  GLY34      -0.1942
     13  CA       -38.4870   25.5540   -7.5840 C.3    34  GLY34       0.2014
     14  C        -38.8560   26.2350   -8.8930 C.2    34  GLY34       0.2638
     15  O        -38.0080   26.4540   -9.7710 O.2    34  GLY34      -0.2714
     16  N        -40.1240   26.6190   -9.0030 N.am   35  LEU35      -0.1977
     17  CA       -40.6020   27.3660  -10.1710 C.3    35  LEU35       0.1596
     18  C        -39.6110   28.4530  -10.5630 C.2    35  LEU35       0.2287
     19  O        -39.2640   29.3100   -9.7470 O.2    35  LEU35      -0.2864
     20  CB       -41.9810   27.9790   -9.9050 C.3    35  LEU35       0.0297
     21  CG       -42.8690   28.3300  -11.1010 C.3    35  LEU35       0.0022
     22  CD1      -43.2350   27.0980  -11.9370 C.3    35  LEU35       0.0001
     23  CD2      -44.1240   29.0460  -10.6110 C.3    35  LEU35       0.0001
     24  N        -36.4310   28.1260  -11.2930 N.3    37  GLU37      -0.1245
     25  CA       -35.0410   27.7080  -11.0810 C.3    37  GLU37       0.1567
     26  C        -34.4600   26.8890  -12.2340 C.2    37  GLU37       0.2260
     27  O        -35.1450   26.0180  -12.7890 O.2    37  GLU37      -0.2867
     28  CB       -34.9250   26.9110   -9.7770 C.3    37  GLU37       0.0388
     29  CG       -35.0770   27.7940   -8.5420 C.3    37  GLU37       0.1160
     30  CD       -33.8640   28.6810   -8.3520 C.2    37  GLU37       0.3649
     31  OE1      -34.0100   29.9230   -8.3400 O.co2  37  GLU37      -0.2457
     32  OE2      -32.7490   28.1180   -8.2570 O.co2  37  GLU37      -0.2457
     33  N        -35.6380   36.5710   -0.8040 N.3    94  VAL94      -0.1231
     34  CA       -36.7900   36.0040   -1.4870 C.3    94  VAL94       0.1692
     35  C        -36.4160   35.8860   -2.9640 C.2    94  VAL94       0.2592
     36  O        -35.7880   36.8000   -3.5090 O.2    94  VAL94      -0.2718
     37  CB       -37.9780   36.9840   -1.3330 C.3    94  VAL94       0.0266
     38  CG1      -39.1390   36.6190   -2.2580 C.3    94  VAL94       0.0020
     39  CG2      -38.4760   36.9710    0.1160 C.3    94  VAL94       0.0020
     40  N        -36.7920   34.7700   -3.5870 N.am   95  ALA95      -0.1966
     41  CA       -36.7370   34.5860   -5.0490 C.3    95  ALA95       0.1728
     42  C        -35.3460   34.3270   -5.6110 C.2    95  ALA95       0.2616
     43  O        -35.1740   34.3080   -6.8280 O.2    95  ALA95      -0.2715
     44  CB       -37.3570   35.7490   -5.7820 C.3    95  ALA95       0.0334
     45  N        -34.3460   34.1500   -4.7530 N.am   96  VAL96      -0.1963
     46  CA       -32.9850   34.0140   -5.2480 C.3    96  VAL96       0.1727
     47  C        -32.6540   32.5510   -5.4920 C.2    96  VAL96       0.2617
     48  O        -31.5780   32.2300   -5.9840 O.2    96  VAL96      -0.2715
     49  CB       -31.9530   34.6680   -4.2720 C.3    96  VAL96       0.0290
     50  CG1      -31.6490   33.7400   -3.1260 C.3    96  VAL96       0.0023
     51  CG2      -30.6530   34.9770   -4.9800 C.3    96  VAL96       0.0023
     52  N        -33.5240   31.6380   -5.0910 N.am   97  GLY97      -0.1940
     53  CA       -33.2160   30.2090   -5.2350 C.3    97  GLY97       0.2014
     54  C        -32.7690   29.4660   -3.9840 C.2    97  GLY97       0.2639
     55  O        -32.4700   28.2620   -4.0350 O.2    97  GLY97      -0.2714
     56  N        -32.7290   30.1540   -2.8410 N.am   98  LYS98      -0.1963
     57  CA       -32.0950   29.5630   -1.6620 C.3    98  LYS98       0.1728
     58  C        -32.8380   28.3430   -1.1340 C.2    98  LYS98       0.2617
     59  O        -32.2110   27.4270   -0.5980 O.2    98  LYS98      -0.2715
     60  CB       -31.8940   30.5770   -0.5390 C.3    98  LYS98       0.0311
     61  CG       -33.1950   30.9290    0.1550 C.3    98  LYS98       0.0038
     62  CD       -33.1020   32.2940    0.7870 C.3    98  LYS98       0.0206
     63  CE       -34.4640   32.9480    0.6830 C.3    98  LYS98       0.1093
     64  NZ       -35.4660   31.9900    1.2100 N.3    98  LYS98      -0.1314
     65  N        -34.1560   28.2930   -1.2840 N.am   99  SER99      -0.1936
     66  CA       -34.8550   27.0960   -0.8180 C.3    99  SER99       0.2055
     67  C        -34.5200   25.8640   -1.6460 C.2    99  SER99       0.2643
     68  O        -34.5240   24.7500   -1.1270 O.2    99  SER99      -0.2714
     69  CB       -36.3660   27.2850   -0.8300 C.3    99  SER99       0.2130
     70  OG       -36.6900   28.4770   -0.1560 O.3    99  SER99      -0.2179
     71  N        -34.2650   26.0580   -2.9360 N.am  100  THR100     -0.1950
     72  CA       -33.8760   24.9430   -3.7790 C.3   100  THR100      0.1897
     73  C        -32.4680   24.5130   -3.3850 C.2   100  THR100      0.2313
     74  O        -32.1950   23.3210   -3.2430 O.2   100  THR100     -0.2863
     75  CB       -33.8820   25.3190   -5.2890 C.3   100  THR100      0.1794
     76  OG1      -35.2280   25.5710   -5.7190 O.3   100  THR100     -0.2208
     77  CG2      -33.2830   24.1720   -6.1110 C.3   100  THR100      0.0378
     78  N        -32.8360   22.4560   -0.3460 N.3   103  ARG103     -0.1245
     79  CA       -33.4350   21.1370   -0.5660 C.3   103  ARG103      0.1563
     80  C        -32.4470   20.2100   -1.2780 C.2   103  ARG103      0.2260
     81  O        -32.3600   19.0110   -0.9840 O.2   103  ARG103     -0.2867
     82  CB       -34.7140   21.2870   -1.3880 C.3   103  ARG103      0.0307
     83  CG       -35.9280   21.6980   -0.5710 C.3   103  ARG103      0.0489
     84  CD       -37.1970   21.5660   -1.4170 C.3   103  ARG103      0.2205
     85  NE       -37.1120   22.4180   -2.6000 N.pl3 103  ARG103     -0.0865
     86  CZ       -37.6300   23.6400   -2.6980 C.cat 103  ARG103      0.5346
     87  NH1      -38.2900   24.1700   -1.6770 N.pl3 103  ARG103      0.1354
     88  NH2      -37.5000   24.3370   -3.8280 N.pl3 103  ARG103      0.1354
     89  N        -40.0910   29.9400    7.9420 N.3   124  ASP124     -0.1239
     90  CA       -41.4880   30.2910    7.7040 C.3   124  ASP124      0.1674
     91  C        -42.3420   29.9490    8.9210 C.2   124  ASP124      0.2266
     92  O        -43.2700   30.6820    9.2470 O.2   124  ASP124     -0.2867
     93  CB       -42.0510   29.4970    6.5140 C.3   124  ASP124      0.1410
     94  CG       -41.6720   30.0930    5.1660 C.2   124  ASP124      0.3668
     95  OD1      -41.0660   31.1880    5.1070 O.co2 124  ASP124     -0.2456
     96  OD2      -41.9770   29.4330    4.1530 O.co2 124  ASP124     -0.2456
     97  N        -48.1630   28.5020    2.8080 N.3   174  HIS174     -0.1226
     98  CA       -48.1440   29.4940    1.7310 C.3   174  HIS174      0.1752
     99  C        -49.5080   29.6480    1.0450 C.2   174  HIS174      0.2595
    100  O        -49.9410   30.7690    0.7530 O.2   174  HIS174     -0.2718
    101  CB       -47.0150   29.1880    0.7410 C.3   174  HIS174      0.0759
    102  CG       -45.6520   29.4900    1.2850 C.ar  174  HIS174      0.0818
    103  ND1      -45.0880   30.7480    1.2230 N.ar  174  HIS174     -0.2268
    104  CD2      -44.7620   28.7110    1.9460 C.ar  174  HIS174      0.1154
    105  CE1      -43.8970   30.7250    1.7980 C.ar  174  HIS174      0.1986
    106  NE2      -43.6710   29.4980    2.2360 N.ar  174  HIS174     -0.2212
    107  N        -50.2150   28.5340    0.8600 N.am  175  LEU175     -0.1980
    108  CA       -51.5600   28.5590    0.3040 C.3   175  LEU175      0.1596
    109  C        -52.4270   29.5410    1.0840 C.2   175  LEU175      0.2287
    110  O        -53.0260   30.4660    0.5240 O.2   175  LEU175     -0.2864
    111  CB       -52.1950   27.1670    0.3570 C.3   175  LEU175      0.0297
    112  CG       -53.6000   27.0220   -0.2490 C.3   175  LEU175      0.0022
    113  CD1      -53.5600   27.1830   -1.7660 C.3   175  LEU175      0.0001
    114  CD2      -54.2630   25.6930    0.1260 C.3   175  LEU175      0.0001
    115  N        -38.1200   37.6680   -9.3350 N.3   230  TYR230     -0.1241
    116  CA       -39.2790   37.7310   -8.4420 C.3   230  TYR230      0.1605
    117  C        -40.5300   38.0740   -9.2480 C.2   230  TYR230      0.2264
    118  O        -41.5820   37.4510   -9.1200 O.2   230  TYR230     -0.2867
    119  CB       -39.0650   38.7460   -7.3100 C.3   230  TYR230      0.0534
    120  CG       -40.3320   38.9960   -6.5250 C.ar  230  TYR230     -0.0201
    121  CD1      -40.7330   38.1150   -5.5260 C.ar  230  TYR230     -0.0009
    122  CD2      -41.1480   40.0830   -6.8100 C.ar  230  TYR230     -0.0009
    123  CE1      -41.9140   38.3070   -4.8230 C.ar  230  TYR230      0.0417
    124  CE2      -42.3360   40.2800   -6.1200 C.ar  230  TYR230      0.0417
    125  CZ       -42.7060   39.3930   -5.1290 C.ar  230  TYR230      0.1957
    126  OH       -43.8880   39.5610   -4.4570 O.3   230  TYR230     -0.2866
    127  N        -41.5520   35.1410  -11.4840 N.3   233  ARG233     -0.1245
    128  CA       -42.2030   34.0720  -10.7140 C.3   233  ARG233      0.1563
    129  C        -43.6440   34.4500  -10.3700 C.2   233  ARG233      0.2260
    130  O        -44.5430   33.6180  -10.3670 O.2   233  ARG233     -0.2867
    131  CB       -41.4280   33.8310   -9.4170 C.3   233  ARG233      0.0307
    132  CG       -41.4070   32.4200   -8.8870 C.3   233  ARG233      0.0489
    133  CD       -40.2850   32.2590   -7.8430 C.3   233  ARG233      0.2205
    134  NE       -40.8370   32.0370   -6.5080 N.pl3 233  ARG233     -0.0865
    135  CZ       -41.2750   30.8550   -6.0820 C.cat 233  ARG233      0.5346
    136  NH1      -41.1510   29.7770   -6.8530 N.pl3 233  ARG233      0.1354
    137  NH2      -41.8240   30.7380   -4.8780 N.pl3 233  ARG233      0.1354
    138  N        -46.9820   32.4030  -11.3790 N.3   237  MET237     -0.1245
    139  CA       -47.8190   31.8050  -10.3370 C.3   237  MET237      0.1570
    140  C        -49.2990   32.0420  -10.5420 C.2   237  MET237      0.2261
    141  O        -50.1220   31.3330   -9.9580 O.2   237  MET237     -0.2867
    142  CB       -47.3890   32.2730   -8.9500 C.3   237  MET237      0.0387
    143  CG       -46.2600   31.4190   -8.4260 C.3   237  MET237      0.0595
    144  SD       -45.4460   32.1440   -7.0020 S.3   237  MET237     -0.1393
    145  CE       -46.3800   31.3680   -5.6940 C.3   237  MET237      0.0692
    146  N        -49.9350   28.5120   -8.2700 N.3   241  ALA241     -0.1245
    147  CA       -50.4480   28.6950   -6.9120 C.3   241  ALA241      0.1562
    148  C        -51.6590   29.6090   -6.8100 C.2   241  ALA241      0.2260
    149  O        -52.6470   29.2520   -6.1850 O.2   241  ALA241     -0.2867
    150  CB       -49.3290   29.1740   -5.9760 C.3   241  ALA241      0.0290
@<TRIPOS>BOND
     1    11     9    1
     2     9    10    1
     3     9     8    2
     4     8     7    1
     5    27    26    2
     6    26    25    1
     7    22    21    1
     8     7     6    1
     9   127   128    1
    10   138   139    1
    11    24    25    1
    12    21    23    1
    13    21    20    1
    14    25    28    1
    15   128   129    1
    16   128   131    1
    17    18    17    1
    18    18    19    2
    19     6     5    1
    20   140   139    1
    21   140   141    2
    22   129   130    2
    23   139   142    1
    24    17    20    1
    25    17    16    1
    26    28    29    1
    27    15    14    2
    28     5     2    1
    29   131   132    1
    30   115   116    1
    31   117   118    2
    32   117   116    1
    33    16    14   am
    34   142   143    1
    35    14    13    1
    36   132   133    1
    37    29    30    1
    38   116   119    1
    39   143   144    1
    40    30    31   ar
    41    30    32   ar
    42   146   147    1
    43     4     3    2
    44     2     3    1
    45     2     1    1
    46     3    12   am
    47   133   134    1
    48    12    13    1
    49   119   120    1
    50   144   145    1
    51   147   148    1
    52   147   150    1
    53   136   135    1
    54    43    42    2
    55   148   149    2
    56   122   120   ar
    57   122   124   ar
    58   120   121   ar
    59   134   135    2
    60   124   125   ar
    61    77    75    1
    62   135   137    1
    63    48    47    2
    64    44    41    1
    65    76    75    1
    66    42    41    1
    67    42    45   am
    68   121   123   ar
    69    47    46    1
    70    47    52   am
    71    75    72    1
    72    46    45    1
    73    46    49    1
    74    53    52    1
    75    53    54    1
    76   125   123   ar
    77   125   126    1
    78    41    40    1
    79    51    49    1
    80    49    50    1
    81    55    54    2
    82    54    56   am
    83    88    86    1
    84    72    73    1
    85    72    71    1
    86    40    35   am
    87    36    35    2
    88    73    74    2
    89    35    34    1
    90    71    67   am
    91    56    57    1
    92    86    85    2
    93    86    87    1
    94    85    84    1
    95    38    37    1
    96   113   112    1
    97    57    58    1
    98    57    60    1
    99    67    68    2
   100    67    66    1
   101    34    37    1
   102    34    33    1
   103    84    83    1
   104    82    83    1
   105    82    79    1
   106    37    39    1
   107    65    58   am
   108    65    66    1
   109    80    81    2
   110    80    79    1
   111    58    59    2
   112    69    66    1
   113    69    70    1
   114    79    78    1
   115    60    61    1
   116   112   114    1
   117   112   111    1
   118    61    62    1
   119   108   111    1
   120   108   107    1
   121   108   109    1
   122   110   109    2
   123    63    62    1
   124    63    64    1
   125   101   102    1
   126   101    98    1
   127   100    99    2
   128   107    99   am
   129    99    98    1
   130   103   102   ar
   131   103   105   ar
   132   102   104   ar
   133    98    97    1
   134   105   106   ar
   135   104   106   ar
   136    96    94   ar
   137    95    94   ar
   138    94    93    1
   139    93    90    1
   140    90    89    1
   141    90    91    1
   142    91    92    2
