@<TRIPOS>MOLECULE
tmp/3af6A01.pdb
 81 77 0 0 0
SMALL
GASTEIGER

@<TRIPOS>ATOM
      1  N         30.1910   39.0260   60.4330 N.3   599  ARG599     -0.1245
      2  CA        31.0690   39.9830   61.0780 C.3   599  ARG599      0.1563
      3  C         30.6270   40.2750   62.5040 C.2   599  ARG599      0.2260
      4  O         29.4340   40.3010   62.8180 O.2   599  ARG599     -0.2867
      5  CB        31.1510   41.2840   60.2600 C.3   599  ARG599      0.0307
      6  CG        29.8710   42.1130   60.1920 C.3   599  ARG599      0.0489
      7  CD        29.6240   42.6870   58.7820 C.3   599  ARG599      0.2205
      8  NE        30.1030   44.0610   58.5780 N.pl3 599  ARG599     -0.0865
      9  CZ        31.3810   44.4380   58.5300 C.cat 599  ARG599      0.5346
     10  NH1       32.3600   43.5530   58.6720 N.pl3 599  ARG599      0.1354
     11  NH2       31.6870   45.7120   58.3270 N.pl3 599  ARG599      0.1354
     12  N         39.4540   46.3030   71.3450 N.3   611  LEU611     -0.1245
     13  CA        40.4600   45.9900   70.3440 C.3   611  LEU611      0.1561
     14  C         40.9120   44.5440   70.5140 C.2   611  LEU611      0.2260
     15  O         40.8770   43.7440   69.5690 O.2   611  LEU611     -0.2867
     16  CB        41.6570   46.9240   70.5160 C.3   611  LEU611      0.0270
     17  CG        42.3980   47.2980   69.2350 C.3   611  LEU611      0.0019
     18  CD1       43.0160   46.0740   68.5930 C.3   611  LEU611      0.0001
     19  CD2       41.4010   47.9520   68.2810 C.3   611  LEU611      0.0001
     20  N         38.2340   41.8720   69.7140 N.3   614  ALA614     -0.1231
     21  CA        38.0430   41.8680   68.2630 C.3   614  ALA614      0.1694
     22  C         39.1920   41.1550   67.5590 C.2   614  ALA614      0.2592
     23  O         38.9730   40.2760   66.7210 O.2   614  ALA614     -0.2718
     24  CB        37.9290   43.3080   67.7520 C.3   614  ALA614      0.0304
     25  N         40.4150   41.5510   67.8960 N.am  615  THR615     -0.1953
     26  CA        41.6040   40.9470   67.3150 C.3   615  THR615      0.1897
     27  C         41.6320   39.4650   67.6540 C.2   615  THR615      0.2313
     28  O         41.9000   38.6260   66.7890 O.2   615  THR615     -0.2863
     29  CB        42.8890   41.5990   67.8700 C.3   615  THR615      0.1794
     30  OG1       42.9990   42.9410   67.3760 O.3   615  THR615     -0.2208
     31  CG2       44.1150   40.7970   67.4630 C.3   615  THR615      0.0378
     32  N         38.9710   37.2580   65.6900 N.3   618  HIS618     -0.1226
     33  CA        39.4090   37.0580   64.3170 C.3   618  HIS618      0.1752
     34  C         40.4970   35.9960   64.1960 C.2   618  HIS618      0.2595
     35  O         40.4380   35.1110   63.3420 O.2   618  HIS618     -0.2718
     36  CB        39.9550   38.3570   63.7350 C.3   618  HIS618      0.0759
     37  CG        40.4790   38.2020   62.3440 C.ar  618  HIS618      0.0818
     38  ND1       39.6520   38.0000   61.2580 N.ar  618  HIS618     -0.2268
     39  CD2       41.7450   38.1680   61.8660 C.ar  618  HIS618      0.1154
     40  CE1       40.3880   37.8490   60.1730 C.ar  618  HIS618      0.1986
     41  NE2       41.6610   37.9470   60.5140 N.ar  618  HIS618     -0.2212
     42  N         41.5000   36.1100   65.0520 N.am  619  ARG619     -0.1980
     43  CA        42.6210   35.1960   65.0460 C.3   619  ARG619      0.1597
     44  C         42.2200   33.7600   65.3720 C.2   619  ARG619      0.2287
     45  O         42.7530   32.8210   64.7880 O.2   619  ARG619     -0.2864
     46  CB        43.6690   35.7010   66.0350 C.3   619  ARG619      0.0334
     47  CG        45.0320   35.0580   65.9290 C.3   619  ARG619      0.0492
     48  CD        46.0750   36.0240   66.4660 C.3   619  ARG619      0.2205
     49  NE        45.6530   36.5730   67.7510 N.pl3 619  ARG619     -0.0865
     50  CZ        46.0300   37.7590   68.2200 C.cat 619  ARG619      0.5346
     51  NH1       46.8440   38.5270   67.5040 N.pl3 619  ARG619      0.1354
     52  NH2       45.5820   38.1800   69.4000 N.pl3 619  ARG619      0.1354
     53  N         35.3480   38.0970   60.5230 N.3   624  SER624     -0.1202
     54  CA        35.6330   39.5210   60.3430 C.3   624  SER624      0.2020
     55  C         35.1960   40.2790   61.5800 C.2   624  SER624      0.2619
     56  O         34.0240   40.2260   61.9630 O.2   624  SER624     -0.2717
     57  CB        34.8720   40.1000   59.1540 C.3   624  SER624      0.2103
     58  OG        35.4970   39.7800   57.9270 O.3   624  SER624     -0.2182
     59  N         36.1190   41.0070   62.1930 N.am  625  THR625     -0.1938
     60  CA        35.7780   41.7510   63.3860 C.3   625  THR625      0.2028
     61  C         36.2080   43.2150   63.3450 C.2   625  THR625      0.2642
     62  O         37.0300   43.6190   62.5330 O.2   625  THR625     -0.2714
     63  CB        36.4200   41.0900   64.6150 C.3   625  THR625      0.1808
     64  OG1       37.8480   41.1910   64.5160 O.3   625  THR625     -0.2208
     65  CG2       36.0180   39.6010   64.6950 C.3   625  THR625      0.0379
     66  N         35.6290   44.0200   64.2250 N.am  626  ARG626     -0.1963
     67  CA        36.0090   45.4200   64.3060 C.3   626  ARG626      0.1729
     68  C         35.5510   46.0640   65.5990 C.2   626  ARG626      0.2616
     69  O         34.4700   45.7590   66.1080 O.2   626  ARG626     -0.2715
     70  CB        35.4600   46.2190   63.1310 C.3   626  ARG626      0.0348
     71  CG        36.0970   47.6040   63.0670 C.3   626  ARG626      0.0492
     72  CD        35.4900   48.4460   61.9780 C.3   626  ARG626      0.2205
     73  NE        35.4370   47.7100   60.7220 N.pl3 626  ARG626     -0.0865
     74  CZ        35.0130   48.2380   59.5830 C.cat 626  ARG626      0.5346
     75  NH1       34.6140   49.5030   59.5600 N.pl3 626  ARG626      0.1354
     76  NH2       34.9850   47.5040   58.4780 N.pl3 626  ARG626      0.1354
     77  N         36.3940   46.9500   66.1210 N.am  627  ALA627     -0.1977
     78  CA        36.1260   47.6870   67.3510 C.3   627  ALA627      0.1597
     79  C         36.0500   49.1750   66.9830 C.2   627  ALA627      0.2287
     80  O         36.9950   49.9420   67.1830 O.2   627  ALA627     -0.2864
     81  CB        37.2380   47.4370   68.3540 C.3   627  ALA627      0.0319
@<TRIPOS>BOND
     1    58    57    1
     2    11     9    1
     3    76    74    1
     4     9     8    2
     5     9    10    1
     6     8     7    1
     7     7     6    1
     8    57    54    1
     9    75    74    1
    10    74    73    2
    11    40    41   ar
    12    40    38   ar
    13     6     5    1
    14     5     2    1
    15    54    53    1
    16    54    55    1
    17     1     2    1
    18    41    39   ar
    19    73    72    1
    20     2     3    1
    21    38    37   ar
    22    55    56    2
    23    55    59   am
    24    39    37   ar
    25    72    71    1
    26    59    60    1
    27    37    36    1
    28     3     4    2
    29    62    61    2
    30    71    70    1
    31    70    67    1
    32    35    34    2
    33    61    60    1
    34    61    66   am
    35    60    63    1
    36    36    33    1
    37    34    33    1
    38    34    42   am
    39    66    67    1
    40    67    68    1
    41    33    32    1
    42    64    63    1
    43    63    65    1
    44    45    44    2
    45    43    42    1
    46    43    44    1
    47    43    46    1
    48    68    69    2
    49    68    77   am
    50    47    46    1
    51    47    48    1
    52    77    78    1
    53    48    49    1
    54    23    22    2
    55    28    27    2
    56    79    80    2
    57    79    78    1
    58    26    27    1
    59    26    29    1
    60    26    25    1
    61    78    81    1
    62    30    29    1
    63    31    29    1
    64    51    50    1
    65    22    25   am
    66    22    21    1
    67    49    50    2
    68    24    21    1
    69    50    52    1
    70    21    20    1
    71    19    17    1
    72    18    17    1
    73    17    16    1
    74    15    14    2
    75    13    14    1
    76    13    16    1
    77    13    12    1
