@<TRIPOS>MOLECULE
tmp/3af6A00.pdb
 195 187 0 0 0
SMALL
GASTEIGER

@<TRIPOS>ATOM
      1  N          2.6470   47.6480   67.2800 N.3    32  PRO32      -0.2116
      2  CA         2.9190   46.5650   66.3300 C.3    32  PRO32       0.1372
      3  C          1.7020   45.7060   65.9700 C.2    32  PRO32       0.2244
      4  O          1.5390   45.3090   64.8160 O.2    32  PRO32      -0.2868
      5  CB         3.9930   45.7460   67.0410 C.3    32  PRO32       0.0268
      6  CG         4.7140   46.7730   67.8450 C.3    32  PRO32       0.0207
      7  CD         3.5890   47.6060   68.4070 C.3    32  PRO32       0.0892
      8  N         -7.8980   32.6350   64.8760 N.3    45  ILE45      -0.1231
      9  CA        -6.9180   33.6940   65.0570 C.3    45  ILE45       0.1692
     10  C         -5.5450   33.2340   64.5710 C.2    45  ILE45       0.2591
     11  O         -4.9120   33.9020   63.7540 O.2    45  ILE45      -0.2718
     12  CB        -6.8260   34.0860   66.5410 C.3    45  ILE45       0.0266
     13  CG1       -8.2200   34.4390   67.0640 C.3    45  ILE45       0.0019
     14  CG2       -5.8860   35.2620   66.7130 C.3    45  ILE45       0.0020
     15  CD1       -8.2800   34.6590   68.5590 C.3    45  ILE45       0.0001
     16  N         -5.0970   32.0860   65.0730 N.am   46  LYS46      -0.1980
     17  CA        -3.8010   31.5260   64.6970 C.3    46  LYS46       0.1596
     18  C         -3.6230   31.5050   63.1810 C.2    46  LYS46       0.2287
     19  O         -2.5280   31.7410   62.6760 O.2    46  LYS46      -0.2864
     20  CB        -3.6550   30.1010   65.2530 C.3    46  LYS46       0.0298
     21  CG        -4.6330   29.0890   64.6510 C.3    46  LYS46       0.0038
     22  CD        -4.4970   27.7010   65.2780 C.3    46  LYS46       0.0206
     23  CE        -5.4710   26.7080   64.6420 C.3    46  LYS46       0.1093
     24  NZ        -5.3970   25.3550   65.2560 N.3    46  LYS46      -0.1314
     25  N         -3.6170   35.2350   61.6500 N.3    49  ALA49      -0.1231
     26  CA        -2.3210   35.8590   61.8970 C.3    49  ALA49       0.1694
     27  C         -1.1740   35.2710   61.0790 C.2    49  ALA49       0.2591
     28  O         -0.2890   36.0020   60.6320 O.2    49  ALA49      -0.2718
     29  CB        -1.9910   35.7870   63.3790 C.3    49  ALA49       0.0304
     30  N         -1.1800   33.9550   60.8900 N.am   50  LYS50      -0.1980
     31  CA        -0.1290   33.3070   60.1150 C.3    50  LYS50       0.1596
     32  C         -0.2000   33.7400   58.6570 C.2    50  LYS50       0.2287
     33  O          0.7780   33.6310   57.9210 O.2    50  LYS50      -0.2864
     34  CB        -0.2510   31.7860   60.2120 C.3    50  LYS50       0.0298
     35  CG         0.1060   31.2260   61.5750 C.3    50  LYS50       0.0038
     36  CD        -0.0030   29.7130   61.5990 C.3    50  LYS50       0.0206
     37  CE         0.3280   29.1690   62.9780 C.3    50  LYS50       0.1093
     38  NZ         0.1980   27.6870   63.0340 N.3    50  LYS50      -0.1314
     39  N          0.6380   37.7920   58.5490 N.3    53  LYS53      -0.1231
     40  CA         2.0080   37.9980   59.0080 C.3    53  LYS53       0.1693
     41  C          2.0250   39.0900   60.0790 C.2    53  LYS53       0.2592
     42  O          2.8840   39.9720   60.0660 O.2    53  LYS53      -0.2718
     43  CB         2.9010   38.4090   57.8290 C.3    53  LYS53       0.0285
     44  CG         2.8140   37.4840   56.6140 C.3    53  LYS53       0.0035
     45  CD         3.7420   36.2840   56.7300 C.3    53  LYS53       0.0206
     46  CE         5.1770   36.6550   56.3740 C.3    53  LYS53       0.1093
     47  NZ         5.3360   36.9930   54.9300 N.3    53  LYS53      -0.1314
     48  N          1.0680   39.0220   61.0020 N.am   54  LYS54      -0.1966
     49  CA         0.9600   40.0040   62.0730 C.3    54  LYS54       0.1728
     50  C          0.4710   39.4040   63.3790 C.2    54  LYS54       0.2616
     51  O          0.2030   38.2100   63.4660 O.2    54  LYS54      -0.2715
     52  CB         0.0140   41.1330   61.6590 C.3    54  LYS54       0.0311
     53  CG         0.5690   42.0110   60.5540 C.3    54  LYS54       0.0038
     54  CD        -0.3770   43.1420   60.2060 C.3    54  LYS54       0.0206
     55  CE         0.2630   44.0900   59.1990 C.3    54  LYS54       0.1093
     56  NZ         0.7610   43.3910   57.9770 N.3    54  LYS54      -0.1314
     57  N          0.3710   40.2510   64.3970 N.am   55  ARG55      -0.1963
     58  CA        -0.1030   39.8520   65.7180 C.3    55  ARG55       0.1729
     59  C         -1.4840   40.4730   65.9000 C.2    55  ARG55       0.2616
     60  O         -1.6100   41.6810   66.1040 O.2    55  ARG55      -0.2715
     61  CB         0.8450   40.3730   66.8010 C.3    55  ARG55       0.0348
     62  CG         0.3250   40.2100   68.2150 C.3    55  ARG55       0.0492
     63  CD         0.1850   38.7530   68.5760 C.3    55  ARG55       0.2205
     64  NE        -0.3640   38.5790   69.9150 N.pl3  55  ARG55      -0.0865
     65  CZ        -0.4720   37.4060   70.5260 C.cat  55  ARG55       0.5346
     66  NH1       -0.0640   36.3010   69.9150 N.pl3  55  ARG55       0.1354
     67  NH2       -0.9890   37.3350   71.7460 N.pl3  55  ARG55       0.1354
     68  N         -2.5170   39.6430   65.8270 N.am   56  ILE56      -0.1963
     69  CA        -3.8860   40.1260   65.9490 C.3    56  ILE56       0.1727
     70  C         -4.5180   39.9080   67.3170 C.2    56  ILE56       0.2616
     71  O         -4.4360   38.8250   67.8940 O.2    56  ILE56      -0.2715
     72  CB        -4.7820   39.4810   64.8720 C.3    56  ILE56       0.0290
     73  CG1       -4.5700   37.9700   64.8690 C.3    56  ILE56       0.0022
     74  CG2       -4.4560   40.0610   63.5030 C.3    56  ILE56       0.0023
     75  CD1       -5.3350   37.2460   63.7910 C.3    56  ILE56       0.0001
     76  N         -5.1440   40.9610   67.8280 N.am   57  SER57      -0.1950
     77  CA        -5.8180   40.9240   69.1160 C.3    57  SER57       0.1924
     78  C         -7.2690   41.3220   68.8960 C.2    57  SER57       0.2314
     79  O         -7.5630   42.4630   68.5310 O.2    57  SER57      -0.2863
     80  CB        -5.1640   41.9010   70.0940 C.3    57  SER57       0.2116
     81  OG        -5.8860   41.9580   71.3110 O.3    57  SER57      -0.2180
     82  N          3.2080   50.9730   59.6870 N.3   165  TYR165     -0.1241
     83  CA         2.6670   50.4880   58.4230 C.3   165  TYR165      0.1605
     84  C          2.4860   51.5740   57.3660 C.2   165  TYR165      0.2264
     85  O          1.5830   51.4970   56.5260 O.2   165  TYR165     -0.2867
     86  CB         1.3530   49.7620   58.6970 C.3   165  TYR165      0.0534
     87  CG         1.5700   48.5900   59.6170 C.ar  165  TYR165     -0.0201
     88  CD1        2.0980   47.3950   59.1290 C.ar  165  TYR165     -0.0009
     89  CD2        1.3650   48.7070   60.9930 C.ar  165  TYR165     -0.0009
     90  CE1        2.4290   46.3460   59.9830 C.ar  165  TYR165      0.0417
     91  CE2        1.6960   47.6570   61.8580 C.ar  165  TYR165      0.0417
     92  CZ         2.2320   46.4830   61.3390 C.ar  165  TYR165      0.1957
     93  OH         2.5990   45.4510   62.1690 O.3   165  TYR165     -0.2866
     94  N          8.1600   38.2430   68.1260 N.3   314  VAL314     -0.1231
     95  CA         8.5080   38.9590   66.8990 C.3   314  VAL314      0.1692
     96  C          7.4850   40.0380   66.5460 C.2   314  VAL314      0.2592
     97  O          6.3060   39.7410   66.3930 O.2   314  VAL314     -0.2718
     98  CB         8.6000   37.9700   65.7120 C.3   314  VAL314      0.0266
     99  CG1        9.0140   38.7000   64.4520 C.3   314  VAL314      0.0020
    100  CG2        9.5950   36.8770   66.0260 C.3   314  VAL314      0.0020
    101  N          7.9230   41.2850   66.4030 N.am  315  ARG315     -0.1966
    102  CA         6.9880   42.3550   66.0540 C.3   315  ARG315      0.1729
    103  C          7.5460   43.3290   65.0300 C.2   315  ARG315      0.2616
    104  O          8.7030   43.7210   65.1120 O.2   315  ARG315     -0.2715
    105  CB         6.5800   43.1530   67.2970 C.3   315  ARG315      0.0348
    106  CG         5.9040   42.3460   68.3930 C.3   315  ARG315      0.0492
    107  CD         4.4310   42.0810   68.1100 C.3   315  ARG315      0.2205
    108  NE         3.8220   41.3180   69.2000 N.pl3 315  ARG315     -0.0865
    109  CZ         3.9010   39.9950   69.3240 C.cat 315  ARG315      0.5346
    110  NH1        4.5510   39.2750   68.4170 N.pl3 315  ARG315      0.1354
    111  NH2        3.3530   39.3900   70.3720 N.pl3 315  ARG315      0.1354
    112  N          6.7190   43.7130   64.0610 N.am  316  ASP316     -0.1971
    113  CA         7.1190   44.6870   63.0480 C.3   316  ASP316      0.1709
    114  C          7.1540   46.0660   63.7290 C.2   316  ASP316      0.2293
    115  O          6.1440   46.5140   64.2890 O.2   316  ASP316     -0.2864
    116  CB         6.1010   44.7340   61.8980 C.3   316  ASP316      0.1436
    117  CG         6.0790   43.4600   61.0650 C.2   316  ASP316      0.3671
    118  OD1        5.4490   43.4730   59.9870 O.co2 316  ASP316     -0.2456
    119  OD2        6.6790   42.4440   61.4740 O.co2 316  ASP316     -0.2456
    120  N         12.1570   44.2290   61.8020 N.3   322  ARG322     -0.1245
    121  CA        11.3620   43.3900   62.6900 C.3   322  ARG322      0.1563
    122  C         12.1620   43.0750   63.9450 C.2   322  ARG322      0.2260
    123  O         13.3010   42.5990   63.8790 O.2   322  ARG322     -0.2867
    124  CB        10.9590   42.0970   61.9940 C.3   322  ARG322      0.0307
    125  CG         9.4710   41.9810   61.7560 C.3   322  ARG322      0.0489
    126  CD         9.1160   40.5550   61.4470 C.3   322  ARG322      0.2205
    127  NE         9.6100   40.1590   60.1360 N.pl3 322  ARG322     -0.0865
    128  CZ         9.0860   40.5830   58.9930 C.cat 322  ARG322      0.5346
    129  NH1        8.0520   41.4110   59.0130 N.pl3 322  ARG322      0.1354
    130  NH2        9.5920   40.1830   57.8370 N.pl3 322  ARG322      0.1354
    131  N         12.7850   41.3280   67.8320 N.3   324  THR324     -0.1218
    132  CA        12.6000   40.1750   68.6880 C.3   324  THR324      0.1862
    133  C         13.6420   40.3650   69.7790 C.2   324  THR324      0.2287
    134  O         14.7930   40.6800   69.4840 O.2   324  THR324     -0.2866
    135  CB        12.9000   38.8280   67.9840 C.3   324  THR324      0.1770
    136  OG1       12.1170   38.7090   66.7940 O.3   324  THR324     -0.2211
    137  CG2       12.5480   37.6670   68.9170 C.3   324  THR324      0.0375
    138  N         17.4780   41.6870   68.6630 N.3   338  HIS338     -0.1241
    139  CA        17.6720   41.1100   67.3360 C.3   338  HIS338      0.1621
    140  C         16.8600   41.8640   66.2970 C.2   338  HIS338      0.2264
    141  O         15.6440   42.0160   66.4250 O.2   338  HIS338     -0.2867
    142  CB        17.2790   39.6240   67.3340 C.3   338  HIS338      0.0745
    143  CG        17.4770   38.9430   66.0130 C.ar  338  HIS338      0.0817
    144  ND1       16.5830   39.0630   64.9660 N.ar  338  HIS338     -0.2268
    145  CD2       18.4910   38.1710   65.5540 C.ar  338  HIS338      0.1154
    146  CE1       17.0420   38.4000   63.9200 C.ar  338  HIS338      0.1986
    147  NE2       18.1980   37.8500   64.2500 N.ar  338  HIS338     -0.2212
    148  N         15.6890   42.0070   62.4360 N.3   340  HIS340     -0.1241
    149  CA        15.4980   41.3380   61.1660 C.3   340  HIS340      0.1621
    150  C         15.1690   42.4910   60.2130 C.2   340  HIS340      0.2264
    151  O         14.0650   43.0370   60.2620 O.2   340  HIS340     -0.2867
    152  CB        14.3260   40.3560   61.2980 C.3   340  HIS340      0.0745
    153  CG        13.8620   39.7820   60.0000 C.ar  340  HIS340      0.0817
    154  ND1       14.6950   39.0890   59.1510 N.ar  340  HIS340     -0.2268
    155  CD2       12.6510   39.8110   59.3980 C.ar  340  HIS340      0.1154
    156  CE1       14.0160   38.7150   58.0820 C.ar  340  HIS340      0.1986
    157  NE2       12.7740   39.1390   58.2070 N.ar  340  HIS340     -0.2212
    158  N         13.1920   41.7150   54.2600 N.3   343  ASN343     -0.1225
    159  CA        12.5310   40.4480   54.5310 C.3   343  ASN343      0.1785
    160  C         13.5430   39.3500   54.2410 C.2   343  ASN343      0.2597
    161  O         13.3600   38.5380   53.3360 O.2   343  ASN343     -0.2718
    162  CB        11.2820   40.2640   53.6710 C.3   343  ASN343      0.1169
    163  CG        10.5550   38.9540   53.9760 C.2   343  ASN343      0.2627
    164  OD1       10.2060   38.6730   55.1310 O.2   343  ASN343     -0.2716
    165  ND2       10.3290   38.1420   52.9380 N.am  343  ASN343     -0.0877
    166  N         14.6240   39.3450   55.0140 N.am  344  GLY344     -0.1957
    167  CA        15.6640   38.3530   54.8300 C.3   344  GLY344      0.1869
    168  C         16.9260   38.9860   54.2880 C.2   344  GLY344      0.2309
    169  O         17.8880   38.2960   53.9520 O.2   344  GLY344     -0.2863
    170  N         20.5070   40.5500   59.1360 N.3   347  ASN347     -0.1240
    171  CA        20.1020   40.4260   60.5270 C.3   347  ASN347      0.1653
    172  C         21.1970   40.8220   61.4950 C.2   347  ASN347      0.2266
    173  O         22.3290   40.3380   61.4070 O.2   347  ASN347     -0.2867
    174  CB        19.6370   39.0010   60.8170 C.3   347  ASN347      0.1155
    175  CG        18.4950   38.5940   59.9380 C.2   347  ASN347      0.2627
    176  OD1       18.6810   38.3400   58.7430 O.2   347  ASN347     -0.2716
    177  ND2       17.2920   38.5570   60.5040 N.am  347  ASN347     -0.0877
    178  N         17.2130   32.8050   64.4720 N.3   370  PRO370     -0.2102
    179  CA        16.8360   32.2150   63.1840 C.3   370  PRO370      0.1504
    180  C         17.8380   32.5550   62.0890 C.2   370  PRO370      0.2575
    181  O         18.1680   31.7130   61.2460 O.2   370  PRO370     -0.2718
    182  CB        15.4290   32.7770   62.9280 C.3   370  PRO370      0.0282
    183  CG        15.3020   33.9330   63.8800 C.3   370  PRO370      0.0208
    184  CD        16.0900   33.5300   65.0800 C.3   370  PRO370      0.0893
    185  N         18.3350   33.7870   62.1220 N.am  371  ARG371     -0.1980
    186  CA        19.3260   34.2640   61.1610 C.3   371  ARG371      0.1597
    187  C         20.2320   35.2330   61.8890 C.2   371  ARG371      0.2287
    188  O         19.8090   35.8650   62.8510 O.2   371  ARG371     -0.2864
    189  CB        18.6360   34.9660   59.9940 C.3   371  ARG371      0.0334
    190  CG        17.9050   34.0140   59.0590 C.3   371  ARG371      0.0492
    191  CD        18.8480   33.3820   58.0440 C.3   371  ARG371      0.2205
    192  NE        18.7140   33.9940   56.7210 N.pl3 371  ARG371     -0.0865
    193  CZ        19.1610   35.2020   56.3940 C.cat 371  ARG371      0.5346
    194  NH1       18.9790   35.6600   55.1670 N.pl3 371  ARG371      0.1354
    195  NH2       19.7980   35.9450   57.2840 N.pl3 371  ARG371      0.1354
@<TRIPOS>BOND
     1   165   163   am
     2   161   160    2
     3   162   163    1
     4   162   159    1
     5   169   168    2
     6   163   164    2
     7   160   159    1
     8   160   166   am
     9   158   159    1
    10   168   167    1
    11   167   166    1
    12    47    46    1
    13   194   193    1
    14    46    45    1
    15   193   192    2
    16   193   195    1
    17    85    84    2
    18    44    45    1
    19    44    43    1
    20   192   191    1
    21    84    83    1
    22    43    40    1
    23   130   128    1
    24    33    32    2
    25    56    55    1
    26   191   190    1
    27   156   157   ar
    28   156   154   ar
    29   157   155   ar
    30    83    86    1
    31    83    82    1
    32    39    40    1
    33    32    31    1
    34    86    87    1
    35   176   175    2
    36   128   129    1
    37   128   127    2
    38    40    41    1
    39   190   189    1
    40    88    87   ar
    41    88    90   ar
    42   170   171    1
    43   154   153   ar
    44    55    54    1
    45   155   153   ar
    46    87    89   ar
    47   175   177   am
    48   175   174    1
    49    90    92   ar
    50   118   117   ar
    51   189   186    1
    52   153   152    1
    53    42    41    2
    54    41    48   am
    55    31    34    1
    56    31    30    1
    57   127   126    1
    58    54    53    1
    59    34    35    1
    60   150   151    2
    61   150   149    1
    62   171   174    1
    63   171   172    1
    64    53    52    1
    65    28    27    2
    66    30    27   am
    67    89    91   ar
    68    48    49    1
    69   117   119   ar
    70   117   116    1
    71    27    26    1
    72   186   187    1
    73   186   185    1
    74   149   152    1
    75   149   148    1
    76   181   180    2
    77    92    91   ar
    78    92    93    1
    79   173   172    2
    80   126   125    1
    81    35    36    1
    82    36    37    1
    83    25    26    1
    84    52    49    1
    85   125   124    1
    86   120   121    1
    87   187   188    2
    88    26    29    1
    89   116   113    1
    90   124   121    1
    91    49    50    1
    92   180   185   am
    93   180   179    1
    94    19    18    2
    95   121   122    1
    96   182   179    1
    97   182   183    1
    98    37    38    1
    99   113   114    1
   100   113   112    1
   101    18    17    1
   102   179   178    1
   103    50    51    2
   104    50    57   am
   105    74    72    1
   106   114   115    2
   107    11    10    2
   108    75    73    1
   109   123   122    2
   110   183   184    1
   111   146   147   ar
   112   146   144   ar
   113   112   103   am
   114   147   145   ar
   115    57    58    1
   116    99    98    1
   117   178   184    1
   118    10     9    1
   119    10    16   am
   120    23    24    1
   121    23    22    1
   122    21    20    1
   123    21    22    1
   124    17    16    1
   125    17    20    1
   126     4     3    2
   127    73    72    1
   128    72    69    1
   129     8     9    1
   130   144   143   ar
   131   103   104    2
   132   103   102    1
   133     9    12    1
   134   145   143   ar
   135    98   100    1
   136    98    95    1
   137    58    59    1
   138    58    61    1
   139    68    59   am
   140    68    69    1
   141    59    60    2
   142    69    70    1
   143     3     2    1
   144   143   142    1
   145   102   101    1
   146   102   105    1
   147   140   141    2
   148   140   139    1
   149     2     5    1
   150     2     1    1
   151    97    96    2
   152   101    96   am
   153    12    14    1
   154    12    13    1
   155    96    95    1
   156   136   135    1
   157    61    62    1
   158    95    94    1
   159     5     6    1
   160    13    15    1
   161     1     7    1
   162   105   106    1
   163    70    76   am
   164    70    71    2
   165   142   139    1
   166   139   138    1
   167    76    77    1
   168   131   132    1
   169     6     7    1
   170   135   132    1
   171   135   137    1
   172   107   106    1
   173   107   108    1
   174    62    63    1
   175   110   109    1
   176    79    78    2
   177    63    64    1
   178   132   133    1
   179    78    77    1
   180    77    80    1
   181   108   109    2
   182   109   111    1
   183   134   133    2
   184    64    65    2
   185    66    65    1
   186    80    81    1
   187    65    67    1
