@<TRIPOS>MOLECULE
tmp/3aflA00.pdb
 201 199 0 0 0
SMALL
GASTEIGER

@<TRIPOS>ATOM
      1  N          0.7920   18.7190   -2.7500 N.3   183  ARG183     -0.1245
      2  CA         0.3840   18.2230   -1.4370 C.3   183  ARG183      0.1563
      3  C          0.8160   19.2260   -0.3690 C.2   183  ARG183      0.2260
      4  O          1.9870   19.6040   -0.3010 O.2   183  ARG183     -0.2867
      5  CB         0.9690   16.8310   -1.1600 C.3   183  ARG183      0.0307
      6  CG         0.5160   16.2210    0.1620 C.3   183  ARG183      0.0489
      7  CD         1.3940   15.0390    0.5800 C.3   183  ARG183      0.2205
      8  NE         1.2580   14.7270    2.0080 N.pl3 183  ARG183     -0.0865
      9  CZ         1.7600   13.6440    2.6000 C.cat 183  ARG183      0.5346
     10  NH1        2.4310   12.7460    1.8860 N.pl3 183  ARG183      0.1354
     11  NH2        1.5890   13.4510    3.9070 N.pl3 183  ARG183      0.1354
     12  N         -4.2120   18.2570    3.0450 N.3   188  TRP188     -0.1227
     13  CA        -4.1550   16.7930    3.0470 C.3   188  TRP188      0.1737
     14  C         -4.8370   16.1980    4.2850 C.2   188  TRP188      0.2595
     15  O         -5.6260   15.2560    4.1750 O.2   188  TRP188     -0.2718
     16  CB        -2.6960   16.3180    2.9410 C.3   188  TRP188      0.0564
     17  CG        -2.5110   14.8620    3.2510 C.ar  188  TRP188      0.0003
     18  CD1       -2.6560   13.8120    2.3930 C.ar  188  TRP188      0.0946
     19  CD2       -2.1620   14.2990    4.5160 C.ar  188  TRP188      0.0152
     20  NE1       -2.4150   12.6280    3.0450 N.ar  188  TRP188     -0.2442
     21  CE2       -2.1090   12.9010    4.3510 C.ar  188  TRP188      0.0810
     22  CE3       -1.8880   14.8440    5.7760 C.ar  188  TRP188      0.0012
     23  CZ2       -1.7950   12.0430    5.3940 C.ar  188  TRP188      0.0191
     24  CZ3       -1.5770   13.9990    6.8040 C.ar  188  TRP188      0.0001
     25  CH2       -1.5350   12.6110    6.6130 C.ar  188  TRP188      0.0015
     26  N         -4.5260   16.7590    5.4520 N.am  189  ARG189     -0.1980
     27  CA        -5.1290   16.3300    6.7150 C.3   189  ARG189      0.1597
     28  C         -6.6330   16.5760    6.7260 C.2   189  ARG189      0.2287
     29  O         -7.4150   15.6700    7.0630 O.2   189  ARG189     -0.2864
     30  CB        -4.4650   17.0330    7.9010 C.3   189  ARG189      0.0334
     31  CG        -5.1510   16.8250    9.2400 C.3   189  ARG189      0.0492
     32  CD        -4.2950   17.3770   10.3450 C.3   189  ARG189      0.2205
     33  NE        -3.0770   16.5860   10.4880 N.pl3 189  ARG189     -0.0865
     34  CZ        -1.8640   17.0830   10.7030 C.cat 189  ARG189      0.5346
     35  NH1       -1.6770   18.3920   10.7910 N.pl3 189  ARG189      0.1354
     36  NH2       -0.8280   16.2620   10.8170 N.pl3 189  ARG189      0.1354
     37  N         -8.6680   14.1600    4.3880 N.3   192  TYR192     -0.1241
     38  CA        -8.9340   12.8140    4.9150 C.3   192  TYR192      0.1605
     39  C         -9.9060   12.8520    6.0970 C.2   192  TYR192      0.2264
     40  O        -10.7110   11.9340    6.2640 O.2   192  TYR192     -0.2867
     41  CB        -7.6530   11.9890    5.2150 C.3   192  TYR192      0.0534
     42  CG        -6.9380   12.2730    6.5270 C.ar  192  TYR192     -0.0201
     43  CD1       -7.5000   11.9180    7.7480 C.ar  192  TYR192     -0.0009
     44  CD2       -5.6820   12.8640    6.5380 C.ar  192  TYR192     -0.0009
     45  CE1       -6.8420   12.1760    8.9480 C.ar  192  TYR192      0.0417
     46  CE2       -5.0110   13.1240    7.7340 C.ar  192  TYR192      0.0417
     47  CZ        -5.5940   12.7770    8.9350 C.ar  192  TYR192      0.1957
     48  OH        -4.9320   13.0280   10.1240 O.3   192  TYR192     -0.2866
     49  N         -5.1980    8.3660    1.8210 N.3   244  GLU244     -0.1245
     50  CA        -5.8740    8.5030    3.1120 C.3   244  GLU244      0.1567
     51  C         -7.3500    8.8810    2.8970 C.2   244  GLU244      0.2260
     52  O         -8.2440    8.3080    3.5200 O.2   244  GLU244     -0.2867
     53  CB        -5.1520    9.5070    4.0290 C.3   244  GLU244      0.0388
     54  CG        -3.7020    9.1250    4.4110 C.3   244  GLU244      0.1160
     55  CD        -3.5880    8.1960    5.6300 C.2   244  GLU244      0.3649
     56  OE1       -4.6380    7.7220    6.1240 O.co2 244  GLU244     -0.2457
     57  OE2       -2.4410    7.9370    6.0960 O.co2 244  GLU244     -0.2457
     58  N          4.0690    0.6740    4.3570 N.3   300  SER300     -0.1202
     59  CA         3.1740    1.1220    5.4100 C.3   300  SER300      0.2020
     60  C          1.6980    1.1220    5.0050 C.2   300  SER300      0.2618
     61  O          0.9260    0.2960    5.4940 O.2   300  SER300     -0.2717
     62  CB         3.5940    2.5100    5.8780 C.3   300  SER300      0.2103
     63  OG         2.8340    2.9180    7.0010 O.3   300  SER300     -0.2182
     64  N          1.2930    1.9980    4.1150 N.am  301  HIS301     -0.1975
     65  CA        -0.0920    2.1170    3.7700 C.3   301  HIS301      0.1656
     66  C         -0.6920    0.9290    3.0930 C.2   301  HIS301      0.2291
     67  O         -1.8490    0.7100    3.2110 O.2   301  HIS301     -0.2864
     68  CB        -0.2540    3.2850    2.8450 C.3   301  HIS301      0.0771
     69  CG        -0.0370    4.5960    3.4990 C.ar  301  HIS301      0.0820
     70  ND1       -0.1590    5.7810    2.8360 N.ar  301  HIS301     -0.2267
     71  CD2        0.2860    4.9030    4.7590 C.ar  301  HIS301      0.1154
     72  CE1        0.0850    6.7680    3.6610 C.ar  301  HIS301      0.1986
     73  NE2        0.3510    6.2590    4.8370 N.ar  301  HIS301     -0.2212
     74  N         -1.3000   -1.7590    5.9340 N.3   304  ARG304     -0.1245
     75  CA        -2.4250   -1.2300    6.6920 C.3   304  ARG304      0.1563
     76  C         -3.7500   -1.3130    5.9210 C.2   304  ARG304      0.2260
     77  O         -4.7780   -1.7130    6.4750 O.2   304  ARG304     -0.2867
     78  CB        -2.1290    0.2060    7.1330 C.3   304  ARG304      0.0307
     79  CG        -3.3120    0.9630    7.7270 C.3   304  ARG304      0.0489
     80  CD        -2.8770    2.3400    8.1520 C.3   304  ARG304      0.2205
     81  NE        -3.6640    3.3680    7.4920 N.pl3 304  ARG304     -0.0865
     82  CZ        -3.1950    4.5600    7.1370 C.cat 304  ARG304      0.5346
     83  NH1       -1.9310    4.8940    7.3690 N.pl3 304  ARG304      0.1354
     84  NH2       -3.9970    5.4180    6.5350 N.pl3 304  ARG304      0.1354
     85  N          3.3670    4.3310   18.4190 N.3   354  HIS354     -0.1226
     86  CA         2.3980    5.2040   17.7960 C.3   354  HIS354      0.1752
     87  C          1.8270    4.6260   16.5040 C.2   354  HIS354      0.2596
     88  O          0.6250    4.7280   16.2490 O.2   354  HIS354     -0.2718
     89  CB         2.9780    6.5760   17.5120 C.3   354  HIS354      0.0759
     90  CG         2.0430    7.4310   16.7340 C.ar  354  HIS354      0.0818
     91  ND1        0.9130    7.9830   17.2960 N.ar  354  HIS354     -0.2268
     92  CD2        2.0110    7.7500   15.4230 C.ar  354  HIS354      0.1154
     93  CE1        0.2430    8.6400   16.3700 C.ar  354  HIS354      0.1986
     94  NE2        0.8860    8.5110   15.2230 N.ar  354  HIS354     -0.2212
     95  N          2.6940    4.0480   15.6800 N.am  355  TYR355     -0.1976
     96  CA         2.2330    3.3340   14.5000 C.3   355  TYR355      0.1639
     97  C          1.5070    2.0700   14.9220 C.2   355  TYR355      0.2290
     98  O          0.5030    1.7000   14.3170 O.2   355  TYR355     -0.2864
     99  CB         3.3800    3.0390   13.5310 C.3   355  TYR355      0.0560
    100  CG         3.6500    4.1480   12.5120 C.ar  355  TYR355     -0.0198
    101  CD1        3.7660    5.4870   12.9130 C.ar  355  TYR355     -0.0009
    102  CD2        3.8030    3.8590   11.1520 C.ar  355  TYR355     -0.0009
    103  CE1        4.0160    6.5110   11.9830 C.ar  355  TYR355      0.0417
    104  CE2        4.0550    4.8750   10.2220 C.ar  355  TYR355      0.0417
    105  CZ         4.1640    6.1980   10.6470 C.ar  355  TYR355      0.1957
    106  OH         4.4180    7.2140    9.7460 O.3   355  TYR355     -0.2866
    107  N         -0.4120    1.9040   17.3720 N.3   357  MET357     -0.1230
    108  CA        -1.7600    2.3810   17.6340 C.3   357  MET357      0.1702
    109  C         -2.6600    2.2620   16.4130 C.2   357  MET357      0.2593
    110  O         -3.7260    1.6580   16.4820 O.2   357  MET357     -0.2718
    111  CB        -1.7360    3.8260   18.1110 C.3   357  MET357      0.0401
    112  CG        -3.0780    4.3240   18.6090 C.3   357  MET357      0.0596
    113  SD        -3.0210    6.0750   19.0200 S.3   357  MET357     -0.1393
    114  CE        -2.6490    6.8200   17.4330 C.3   357  MET357      0.0692
    115  N         -2.2250    2.8450   15.2990 N.am  358  THR358     -0.1953
    116  CA        -3.0320    2.8550   14.0820 C.3   358  THR358      0.1897
    117  C         -3.1040    1.4550   13.4840 C.2   358  THR358      0.2313
    118  O         -4.1930    0.9370   13.2580 O.2   358  THR358     -0.2863
    119  CB        -2.5090    3.8560   13.0250 C.3   358  THR358      0.1794
    120  OG1       -1.2520    3.4020   12.5160 O.3   358  THR358     -0.2208
    121  CG2       -2.3480    5.2480   13.6160 C.3   358  THR358      0.0378
    122  N          2.6410   11.2000   15.7830 N.3   408  SER408     -0.1217
    123  CA         1.7370   12.3010   15.5410 C.3   408  SER408      0.1889
    124  C          1.4330   13.0610   16.8200 C.2   408  SER408      0.2288
    125  O          1.2130   14.2750   16.7920 O.2   408  SER408     -0.2866
    126  CB         0.4480   11.7520   14.9660 C.3   408  SER408      0.2089
    127  OG        -0.2510   12.7560   14.2770 O.3   408  SER408     -0.2183
    128  N         -7.0640   15.7470   16.0810 N.3   452  PHE452     -0.1227
    129  CA        -7.0020   15.2770   14.7030 C.3   452  PHE452      0.1736
    130  C         -6.6170   13.7960   14.5360 C.2   452  PHE452      0.2595
    131  O         -7.1220   13.1230   13.6380 O.2   452  PHE452     -0.2718
    132  CB        -6.0670   16.1730   13.8890 C.3   452  PHE452      0.0547
    133  CG        -4.6160   15.9450   14.1660 C.ar  452  PHE452     -0.0202
    134  CD1       -3.8640   15.1010   13.3500 C.ar  452  PHE452     -0.0042
    135  CD2       -3.9980   16.5600   15.2460 C.ar  452  PHE452     -0.0042
    136  CE1       -2.5160   14.8750   13.6000 C.ar  452  PHE452     -0.0003
    137  CE2       -2.6480   16.3380   15.5090 C.ar  452  PHE452     -0.0003
    138  CZ        -1.9050   15.4940   14.6780 C.ar  452  PHE452     -0.0000
    139  N         -5.7330   13.2900   15.3940 N.am  453  TYR453     -0.1976
    140  CA        -5.2860   11.9010   15.3060 C.3   453  TYR453      0.1639
    141  C         -6.2340   10.9330   15.9970 C.2   453  TYR453      0.2290
    142  O         -5.9510    9.7410   16.0940 O.2   453  TYR453     -0.2864
    143  CB        -3.8730   11.7430   15.8650 C.3   453  TYR453      0.0560
    144  CG        -3.6770   12.3060   17.2550 C.ar  453  TYR453     -0.0198
    145  CD1       -4.1930   11.6550   18.3730 C.ar  453  TYR453     -0.0009
    146  CD2       -2.9580   13.4850   17.4560 C.ar  453  TYR453     -0.0009
    147  CE1       -4.0140   12.1700   19.6520 C.ar  453  TYR453      0.0417
    148  CE2       -2.7730   14.0040   18.7330 C.ar  453  TYR453      0.0417
    149  CZ        -3.3050   13.3360   19.8240 C.ar  453  TYR453      0.1957
    150  OH        -3.1280   13.8280   21.0930 O.3   453  TYR453     -0.2866
    151  N         -9.6510    9.3110   12.6620 N.3   457  TRP457     -0.1241
    152  CA        -9.2490    7.9210   12.5150 C.3   457  TRP457      0.1605
    153  C        -10.2470    6.9030   13.0610 C.2   457  TRP457      0.2264
    154  O        -10.4220    5.8360   12.4790 O.2   457  TRP457     -0.2867
    155  CB        -7.8470    7.7320   13.1020 C.3   457  TRP457      0.0550
    156  CG        -6.8390    8.5730   12.3680 C.ar  457  TRP457      0.0003
    157  CD1       -6.5800    9.9050   12.5590 C.ar  457  TRP457      0.0946
    158  CD2       -5.9950    8.1530   11.2880 C.ar  457  TRP457      0.0152
    159  NE1       -5.6180   10.3320   11.6770 N.ar  457  TRP457     -0.2442
    160  CE2       -5.2420    9.2790   10.8840 C.ar  457  TRP457      0.0810
    161  CE3       -5.7920    6.9300   10.6290 C.ar  457  TRP457      0.0012
    162  CZ2       -4.3050    9.2180    9.8460 C.ar  457  TRP457      0.0191
    163  CZ3       -4.8540    6.8710    9.5950 C.ar  457  TRP457      0.0001
    164  CH2       -4.1250    8.0090    9.2190 C.ar  457  TRP457      0.0015
    165  N         11.0330    3.2310    6.9660 N.3   520  SER520     -0.1217
    166  CA         9.6430    3.6550    7.2010 C.3   520  SER520      0.1889
    167  C          9.5030    4.6380    8.3750 C.2   520  SER520      0.2288
    168  O         10.0090    5.7620    8.3030 O.2   520  SER520     -0.2866
    169  CB         8.7180    2.4430    7.3500 C.3   520  SER520      0.2089
    170  OG         7.3820    2.7570    6.9910 O.3   520  SER520     -0.2183
    171  N          5.9350   16.8010   16.0000 N.3   545  TYR545     -0.1241
    172  CA         5.5360   16.1090   14.7750 C.3   545  TYR545      0.1605
    173  C          5.4740   17.1250   13.6510 C.2   545  TYR545      0.2264
    174  O          6.1010   16.9380   12.6050 O.2   545  TYR545     -0.2867
    175  CB         4.1980   15.3630   14.9200 C.3   545  TYR545      0.0534
    176  CG         3.8730   14.4710   13.7260 C.ar  545  TYR545     -0.0201
    177  CD1        4.7370   13.4420   13.3430 C.ar  545  TYR545     -0.0009
    178  CD2        2.7020   14.6550   12.9780 C.ar  545  TYR545     -0.0009
    179  CE1        4.4560   12.6230   12.2430 C.ar  545  TYR545      0.0417
    180  CE2        2.4040   13.8310   11.8760 C.ar  545  TYR545      0.0417
    181  CZ         3.2910   12.8190   11.5160 C.ar  545  TYR545      0.1957
    182  OH         3.0230   12.0020   10.4340 O.3   545  TYR545     -0.2866
    183  N          4.2920   15.2940    8.4850 N.3   548  PHE548     -0.1227
    184  CA         5.1260   14.4160    7.6810 C.3   548  PHE548      0.1736
    185  C          5.6940   15.2470    6.5400 C.2   548  PHE548      0.2595
    186  O          4.9620   16.0160    5.9080 O.2   548  PHE548     -0.2718
    187  CB         4.3070   13.2490    7.1300 C.3   548  PHE548      0.0547
    188  CG         5.1470   12.1310    6.6010 C.ar  548  PHE548     -0.0202
    189  CD1        5.5510   11.0960    7.4400 C.ar  548  PHE548     -0.0042
    190  CD2        5.5540   12.1190    5.2720 C.ar  548  PHE548     -0.0042
    191  CE1        6.3430   10.0660    6.9610 C.ar  548  PHE548     -0.0003
    192  CE2        6.3430   11.0970    4.7840 C.ar  548  PHE548     -0.0003
    193  CZ         6.7440   10.0700    5.6280 C.ar  548  PHE548     -0.0000
    194  N          6.9920   15.1120    6.2840 N.am  549  ASN549     -0.1974
    195  CA         7.6650   15.9320    5.2650 C.3   549  ASN549      0.1688
    196  C          7.7710   17.4210    5.6350 C.2   549  ASN549      0.2292
    197  O          7.7900   18.2940    4.7630 O.2   549  ASN549     -0.2864
    198  CB         7.0380   15.7500    3.8620 C.3   549  ASN549      0.1181
    199  CG         7.7420   14.6670    3.0260 C.2   549  ASN549      0.2629
    200  OD1        7.7220   13.4800    3.3690 O.2   549  ASN549     -0.2716
    201  ND2        8.3550   15.0820    1.9140 N.am  549  ASN549     -0.0877
@<TRIPOS>BOND
     1     1     2    1
     2     2     5    1
     3     2     3    1
     4     5     6    1
     5     3     4    2
     6     6     7    1
     7     7     8    1
     8    49    50    1
     9    10     9    1
    10   201   199   am
    11     8     9    2
    12    18    20   ar
    13    18    17   ar
    14     9    11    1
    15    70    69   ar
    16    70    72   ar
    17    68    69    1
    18    68    65    1
    19    51    50    1
    20    51    52    2
    21    16    13    1
    22    16    17    1
    23   199   200    2
    24   199   198    1
    25    12    13    1
    26    20    21   ar
    27    13    14    1
    28    66    67    2
    29    66    65    1
    30    50    53    1
    31    17    19   ar
    32    69    71   ar
    33    72    73   ar
    34    65    64    1
    35   198   195    1
    36    53    54    1
    37    64    60   am
    38    15    14    2
    39    14    26   am
    40    21    19   ar
    41    21    23   ar
    42    58    59    1
    43    37    38    1
    44    54    55    1
    45    19    22   ar
    46    71    73   ar
    47   197   196    2
    48   192   190   ar
    49   192   193   ar
    50    38    41    1
    51    38    39    1
    52    60    59    1
    53    60    61    2
    54    41    42    1
    55   195   196    1
    56   195   194    1
    57   190   188   ar
    58    23    25   ar
    59    59    62    1
    60    26    27    1
    61   193   191   ar
    62    55    57   ar
    63    55    56   ar
    64    22    24   ar
    65    62    63    1
    66   186   185    2
    67    76    77    2
    68    76    75    1
    69    74    75    1
    70    39    40    2
    71   194   185   am
    72    42    44   ar
    73    42    43   ar
    74    84    82    1
    75    44    46   ar
    76   185   184    1
    77   188   187    1
    78   188   189   ar
    79    25    24   ar
    80    75    78    1
    81    27    28    1
    82    27    30    1
    83    28    29    2
    84   191   189   ar
    85   165   166    1
    86   170   169    1
    87   187   184    1
    88    78    79    1
    89    82    83    1
    90    82    81    2
    91   166   169    1
    92   166   167    1
    93    81    80    1
    94   184   183    1
    95    79    80    1
    96    46    47   ar
    97    43    45   ar
    98    30    31    1
    99   168   167    2
   100    47    45   ar
   101    47    48    1
   102   164   163   ar
   103   164   162   ar
   104    31    32    1
   105   163   161   ar
   106   106   105    1
   107   162   160   ar
   108   104   105   ar
   109   104   102   ar
   110    32    33    1
   111   182   181    1
   112    33    34    2
   113   161   158   ar
   114   105   103   ar
   115    34    35    1
   116    34    36    1
   117   160   158   ar
   118   160   159   ar
   119   102   100   ar
   120   158   156   ar
   121   181   180   ar
   122   181   179   ar
   123   159   157   ar
   124   180   178   ar
   125   103   101   ar
   126   179   177   ar
   127   156   157   ar
   128   156   155    1
   129   154   153    2
   130   100   101   ar
   131   100    99    1
   132   152   151    1
   133   152   153    1
   134   152   155    1
   135   120   119    1
   136   174   173    2
   137   178   176   ar
   138   119   121    1
   139   119   116    1
   140   118   117    2
   141   177   176   ar
   142   134   136   ar
   143   134   133   ar
   144   117   116    1
   145    99    96    1
   146   136   138   ar
   147   131   130    2
   148   173   172    1
   149   176   175    1
   150   132   133    1
   151   132   129    1
   152   116   115    1
   153   133   135   ar
   154   127   126    1
   155    98    97    2
   156    96    97    1
   157    96    95    1
   158   130   129    1
   159   130   139   am
   160   138   137   ar
   161   129   128    1
   162   172   175    1
   163   172   171    1
   164   126   123    1
   165    94    92   ar
   166    94    93   ar
   167   135   137   ar
   168   115   109   am
   169   140   139    1
   170   140   143    1
   171   140   141    1
   172    92    90   ar
   173   123   122    1
   174   123   124    1
   175    95    87   am
   176   143   144    1
   177   141   142    2
   178    88    87    2
   179    93    91   ar
   180   109   110    2
   181   109   108    1
   182    87    86    1
   183    90    91   ar
   184    90    89    1
   185   125   124    2
   186   144   146   ar
   187   144   145   ar
   188   107   108    1
   189   114   113    1
   190   146   148   ar
   191    89    86    1
   192   108   111    1
   193    86    85    1
   194   111   112    1
   195   145   147   ar
   196   112   113    1
   197   148   149   ar
   198   147   149   ar
   199   149   150    1
