@<TRIPOS>MOLECULE
tmp/3afoA02.pdb
 97 92 0 0 0
SMALL
GASTEIGER

@<TRIPOS>ATOM
      1  N         73.6620  -14.2990   29.4480 N.3    28  LEU28      -0.1245
      2  CA        72.8590  -13.2160   28.9030 C.3    28  LEU28       0.1561
      3  C         71.3900  -13.6460   28.9340 C.2    28  LEU28       0.2260
      4  O         71.0890  -14.8380   28.9690 O.2    28  LEU28      -0.2867
      5  CB        73.3010  -12.8800   27.4730 C.3    28  LEU28       0.0270
      6  CG        74.7290  -12.3470   27.2860 C.3    28  LEU28       0.0019
      7  CD1       75.0840  -12.2700   25.8120 C.3    28  LEU28       0.0001
      8  CD2       74.8910  -10.9810   27.9580 C.3    28  LEU28       0.0001
      9  N         77.6500   -0.8560   20.6980 N.3   152  PHE152     -0.1241
     10  CA        77.4210   -0.7740   19.2500 C.3   152  PHE152      0.1605
     11  C         77.8800    0.5260   18.6320 C.2   152  PHE152      0.2264
     12  O         77.6500    1.6100   19.1720 O.2   152  PHE152     -0.2867
     13  CB        75.9290   -0.9590   18.9160 C.3   152  PHE152      0.0534
     14  CG        75.3520   -2.2410   19.4300 C.ar  152  PHE152     -0.0203
     15  CD1       75.6040   -3.4340   18.7730 C.ar  152  PHE152     -0.0042
     16  CD2       74.5850   -2.2570   20.5930 C.ar  152  PHE152     -0.0042
     17  CE1       75.0940   -4.6360   19.2620 C.ar  152  PHE152     -0.0003
     18  CE2       74.0780   -3.4470   21.0870 C.ar  152  PHE152     -0.0003
     19  CZ        74.3260   -4.6350   20.4140 C.ar  152  PHE152     -0.0000
     20  N         71.1340   -4.0050   14.0620 N.3   160  VAL160     -0.1245
     21  CA        70.9800   -4.2030   15.5100 C.3   160  VAL160      0.1561
     22  C         69.5290   -3.9910   15.9340 C.2   160  VAL160      0.2260
     23  O         68.9600   -4.8440   16.6150 O.2   160  VAL160     -0.2867
     24  CB        71.9510   -3.3080   16.3350 C.3   160  VAL160      0.0252
     25  CG1       71.6640   -3.4220   17.8300 C.3   160  VAL160      0.0019
     26  CG2       73.4090   -3.6890   16.0460 C.3   160  VAL160      0.0019
     27  N         67.3460   -6.9280   14.9770 N.3   163  GLU163     -0.1245
     28  CA        67.4890   -8.0700   15.8990 C.3   163  GLU163      0.1567
     29  C         66.7010   -7.8480   17.1810 C.2   163  GLU163      0.2260
     30  O         66.0730   -8.7800   17.7110 O.2   163  GLU163     -0.2867
     31  CB        68.9660   -8.3380   16.2320 C.3   163  GLU163      0.0388
     32  CG        69.8190   -8.8130   15.0480 C.3   163  GLU163      0.1160
     33  CD        69.1880   -9.9800   14.2790 C.2   163  GLU163      0.3649
     34  OE1       68.9270  -11.0430   14.8850 O.co2 163  GLU163     -0.2457
     35  OE2       68.9480   -9.8300   13.0610 O.co2 163  GLU163     -0.2457
     36  N         65.2170  -11.2510   18.8390 N.3   168  ARG168     -0.1231
     37  CA        66.4270  -12.0880   18.7020 C.3   168  ARG168      0.1694
     38  C         67.6760  -11.5550   19.4430 C.2   168  ARG168      0.2592
     39  O         68.7600  -12.1350   19.3410 O.2   168  ARG168     -0.2718
     40  CB        66.7700  -12.3240   17.2290 C.3   168  ARG168      0.0321
     41  CG        65.6640  -13.0360   16.4280 C.3   168  ARG168      0.0489
     42  CD        66.1820  -13.4560   15.0650 C.3   168  ARG168      0.2205
     43  NE        66.4680  -12.3040   14.2100 N.pl3 168  ARG168     -0.0865
     44  CZ        65.5950  -11.7760   13.3540 C.cat 168  ARG168      0.5346
     45  NH1       64.3780  -12.2980   13.2350 N.pl3 168  ARG168      0.1354
     46  NH2       65.9340  -10.7230   12.6180 N.pl3 168  ARG168      0.1354
     47  N         67.5240  -10.4540   20.1650 N.am  169  ALA169     -0.1966
     48  CA        68.6480   -9.8640   20.8870 C.3   169  ALA169      0.1728
     49  C         68.7850  -10.4640   22.2800 C.2   169  ALA169      0.2616
     50  O         67.8290  -11.0360   22.8290 O.2   169  ALA169     -0.2715
     51  CB        68.4880   -8.3550   20.9820 C.3   169  ALA169      0.0334
     52  N         69.9810  -10.3140   22.8490 N.am  170  LYS170     -0.1977
     53  CA        70.2500  -10.7240   24.2250 C.3   170  LYS170      0.1596
     54  C         70.7820   -9.5450   25.0300 C.2   170  LYS170      0.2287
     55  O         71.4040   -8.6340   24.4710 O.2   170  LYS170     -0.2864
     56  CB        71.2350  -11.8870   24.2540 C.3   170  LYS170      0.0298
     57  CG        70.6010  -13.2160   23.8690 C.3   170  LYS170      0.0038
     58  CD        71.6170  -14.3320   23.8890 C.3   170  LYS170      0.0206
     59  CE        71.0200  -15.6250   23.3890 C.3   170  LYS170      0.1093
     60  NZ        72.0760  -16.6730   23.3970 N.3   170  LYS170     -0.1314
     61  N         71.2250   -4.3880   26.0020 N.3   335  VAL335     -0.1231
     62  CA        71.4710   -5.1760   24.7960 C.3   335  VAL335      0.1692
     63  C         72.9770   -5.3450   24.6040 C.2   335  VAL335      0.2592
     64  O         73.7210   -4.3600   24.6030 O.2   335  VAL335     -0.2718
     65  CB        70.8610   -4.4960   23.5480 C.3   335  VAL335      0.0266
     66  CG1       71.0990   -5.3320   22.2840 C.3   335  VAL335      0.0020
     67  CG2       69.3710   -4.2690   23.7530 C.3   335  VAL335      0.0020
     68  N         73.3930   -6.5990   24.4490 N.am  336  ALA336     -0.1966
     69  CA        74.7900   -6.9760   24.2510 C.3   336  ALA336      0.1728
     70  C         75.0820   -7.3310   22.7930 C.2   336  ALA336      0.2616
     71  O         74.1900   -7.7710   22.0560 O.2   336  ALA336     -0.2715
     72  CB        75.1320   -8.1550   25.1500 C.3   336  ALA336      0.0334
     73  N         76.3430   -7.1720   22.3940 N.am  337  LYS337     -0.1963
     74  CA        76.7750   -7.4630   21.0240 C.3   337  LYS337      0.1728
     75  C         77.1900   -8.9240   20.8120 C.2   337  LYS337      0.2617
     76  O         76.7710   -9.5610   19.8440 O.2   337  LYS337     -0.2715
     77  CB        77.9150   -6.5310   20.6200 C.3   337  LYS337      0.0311
     78  CG        78.3230   -6.6590   19.1530 C.3   337  LYS337      0.0038
     79  CD        79.2960   -5.5740   18.7640 C.3   337  LYS337      0.0206
     80  CE        79.7870   -5.7910   17.3450 C.3   337  LYS337      0.1093
     81  NZ        80.9320   -4.9050   17.0450 N.3   337  LYS337     -0.1314
     82  N         78.0280   -9.4370   21.7100 N.am  338  THR338     -0.1937
     83  CA        78.5060  -10.8180   21.6670 C.3   338  THR338      0.2028
     84  C         78.3250  -11.3930   23.0610 C.2   338  THR338      0.2642
     85  O         77.9010  -10.6830   23.9730 O.2   338  THR338     -0.2714
     86  CB        80.0260  -10.9030   21.2940 C.3   338  THR338      0.1808
     87  OG1       80.8200  -10.2810   22.3230 O.3   338  THR338     -0.2208
     88  CG2       80.3110  -10.2230   19.9620 C.3   338  THR338      0.0379
     89  N         78.6660  -12.6720   23.1970 N.am  339  GLU339     -0.1976
     90  CA        78.6750  -13.3700   24.4720 C.3   339  GLU339      0.1602
     91  C         79.9950  -13.1420   25.2190 C.2   339  GLU339      0.2287
     92  O         80.2340  -13.7510   26.2650 O.2   339  GLU339     -0.2864
     93  CB        78.4600  -14.8650   24.2250 C.3   339  GLU339      0.0415
     94  CG        77.3430  -15.1810   23.2300 C.3   339  GLU339      0.1163
     95  CD        75.9980  -15.4080   23.9020 C.2   339  GLU339      0.3649
     96  OE1       75.9660  -15.5420   25.1430 O.co2 339  GLU339     -0.2457
     97  OE2       74.9690  -15.4590   23.1920 O.co2 339  GLU339     -0.2457
@<TRIPOS>BOND
     1    46    44    1
     2    35    33   ar
     3    45    44    1
     4    44    43    2
     5    20    21    1
     6    43    42    1
     7    33    34   ar
     8    33    32    1
     9    27    28    1
    10    32    31    1
    11    42    41    1
    12    21    22    1
    13    21    24    1
    14    28    31    1
    15    28    29    1
    16    22    23    2
    17    26    24    1
    18    24    25    1
    19    41    40    1
    20    81    80    1
    21    29    30    2
    22    40    37    1
    23    80    79    1
    24    11    12    2
    25    11    10    1
    26    37    36    1
    27    37    38    1
    28    79    78    1
    29    15    17   ar
    30    15    14   ar
    31    13    10    1
    32    13    14    1
    33    78    77    1
    34    10     9    1
    35    17    19   ar
    36    39    38    2
    37    14    16   ar
    38    38    47   am
    39    76    75    2
    40    88    86    1
    41    47    48    1
    42    19    18   ar
    43    16    18   ar
    44    77    74    1
    45    75    74    1
    46    75    82   am
    47    48    51    1
    48    48    49    1
    49    74    73    1
    50    86    83    1
    51    86    87    1
    52    83    82    1
    53    83    84    1
    54    71    70    2
    55    49    50    2
    56    49    52   am
    57    66    65    1
    58    73    70   am
    59    70    69    1
    60    52    53    1
    61    84    89   am
    62    84    85    2
    63    97    95   ar
    64    89    90    1
    65    94    95    1
    66    94    93    1
    67    59    60    1
    68    59    58    1
    69    65    67    1
    70    65    62    1
    71    57    58    1
    72    57    56    1
    73    95    96   ar
    74    53    56    1
    75    53    54    1
    76    93    90    1
    77    69    68    1
    78    69    72    1
    79    68    63   am
    80    55    54    2
    81    90    91    1
    82    64    63    2
    83    63    62    1
    84    62    61    1
    85    91    92    2
    86     7     6    1
    87     6     5    1
    88     6     8    1
    89     5     2    1
    90     2     3    1
    91     2     1    1
    92     3     4    2
