@<TRIPOS>MOLECULE
tmp/3afoA01.pdb
 92 90 0 0 0
SMALL
GASTEIGER

@<TRIPOS>ATOM
      1  N         83.0100    3.3130   27.5990 N.3   148  PHE148     -0.1227
      2  CA        83.1450    1.8900   27.8520 C.3   148  PHE148      0.1736
      3  C         81.8500    1.0940   27.6610 C.2   148  PHE148      0.2595
      4  O         81.9000   -0.0640   27.2530 O.2   148  PHE148     -0.2718
      5  CB        83.6880    1.6660   29.2690 C.3   148  PHE148      0.0547
      6  CG        83.9830    0.2200   29.6010 C.ar  148  PHE148     -0.0202
      7  CD1       85.1260   -0.4110   29.0940 C.ar  148  PHE148     -0.0042
      8  CD2       83.1350   -0.5050   30.4340 C.ar  148  PHE148     -0.0042
      9  CE1       85.4220   -1.7420   29.4020 C.ar  148  PHE148     -0.0003
     10  CE2       83.4140   -1.8390   30.7590 C.ar  148  PHE148     -0.0003
     11  CZ        84.5680   -2.4670   30.2380 C.ar  148  PHE148     -0.0000
     12  N         80.7050    1.7150   27.9510 N.am  149  LEU149     -0.1966
     13  CA        79.4380    0.9680   28.1010 C.3   149  LEU149      0.1728
     14  C         78.6420    0.6770   26.8190 C.2   149  LEU149      0.2617
     15  O         77.9910   -0.3730   26.7350 O.2   149  LEU149     -0.2715
     16  CB        78.5320    1.6270   29.1560 C.3   149  LEU149      0.0311
     17  CG        79.1280    1.7630   30.5740 C.3   149  LEU149      0.0022
     18  CD1       78.2150    2.5700   31.4760 C.3   149  LEU149      0.0001
     19  CD2       79.4270    0.4030   31.1990 C.3   149  LEU149      0.0001
     20  N         78.6680    1.5900   25.8460 N.am  150  SER150     -0.1936
     21  CA        77.9120    1.4020   24.5990 C.3   150  SER150      0.2040
     22  C         78.5580    0.3450   23.7050 C.2   150  SER150      0.2485
     23  O         79.6550    0.5680   23.1860 O.2   150  SER150     -0.2729
     24  CB        77.7900    2.7230   23.8340 C.3   150  SER150      0.2129
     25  OG        77.2800    3.7620   24.6550 O.3   150  SER150     -0.2179
     26  N         77.8880   -0.8090   23.5080 N.am  151  PRO151     -0.2726
     27  CA        78.5500   -1.8760   22.7590 C.3   151  PRO151      0.1402
     28  C         78.4920   -1.7470   21.2240 C.2   151  PRO151      0.2269
     29  O         79.2040   -2.4790   20.5400 O.2   151  PRO151     -0.2865
     30  CB        77.7840   -3.1440   23.1910 C.3   151  PRO151      0.0296
     31  CG        76.8130   -2.7040   24.2600 C.3   151  PRO151      0.0237
     32  CD        76.5750   -1.2540   24.0030 C.3   151  PRO151      0.0939
     33  N         72.6140   -8.0980   28.8540 N.3   172  LEU172     -0.1245
     34  CA        73.3110   -8.2460   30.1150 C.3   172  LEU172      0.1561
     35  C         72.5420   -7.4960   31.1950 C.2   172  LEU172      0.2260
     36  O         72.1640   -6.3190   31.0240 O.2   172  LEU172     -0.2867
     37  CB        74.7310   -7.6670   30.0040 C.3   172  LEU172      0.0270
     38  CG        75.5450   -7.4900   31.2930 C.3   172  LEU172      0.0019
     39  CD1       76.2180   -8.8130   31.6970 C.3   172  LEU172      0.0001
     40  CD2       76.5670   -6.3810   31.1000 C.3   172  LEU172      0.0001
     41  N         72.4470   -5.5640   34.6150 N.3   174  ARG174     -0.1245
     42  CA        73.2970   -4.7560   35.4810 C.3   174  ARG174      0.1563
     43  C         72.4530   -4.3140   36.6540 C.2   174  ARG174      0.2260
     44  O         71.3460   -3.8070   36.4660 O.2   174  ARG174     -0.2867
     45  CB        73.8460   -3.5310   34.7460 C.3   174  ARG174      0.0307
     46  CG        74.6900   -3.8160   33.5010 C.3   174  ARG174      0.0489
     47  CD        75.1650   -2.4850   32.8890 C.3   174  ARG174      0.2205
     48  NE        75.9540   -2.6180   31.6570 N.pl3 174  ARG174     -0.0865
     49  CZ        77.2360   -2.9900   31.6080 C.cat 174  ARG174      0.5346
     50  NH1       77.8960   -3.3240   32.7190 N.pl3 174  ARG174      0.1354
     51  NH2       77.8550   -3.0640   30.4340 N.pl3 174  ARG174      0.1354
     52  N         80.4700   -7.5970   35.6500 N.3   250  PRO250     -0.2116
     53  CA        79.0880   -7.1860   35.9600 C.3   250  PRO250      0.1372
     54  C         78.1730   -8.3520   36.3230 C.2   250  PRO250      0.2244
     55  O         77.0180   -8.1310   36.6920 O.2   250  PRO250     -0.2868
     56  CB        78.6210   -6.4950   34.6730 C.3   250  PRO250      0.0268
     57  CG        79.4920   -7.1030   33.5940 C.3   250  PRO250      0.0207
     58  CD        80.8380   -7.2570   34.2650 C.3   250  PRO250      0.0892
     59  N         81.5270   -9.6350   25.4580 N.3   341  ASP341     -0.1225
     60  CA        81.7090   -8.1760   25.4050 C.3   341  ASP341      0.1805
     61  C         82.6550   -7.6800   26.4890 C.2   341  ASP341      0.2597
     62  O         83.3860   -6.7140   26.2870 O.2   341  ASP341     -0.2718
     63  CB        80.3660   -7.4530   25.5700 C.3   341  ASP341      0.1424
     64  CG        79.5060   -7.4840   24.3040 C.2   341  ASP341      0.3668
     65  OD1       79.9880   -7.9580   23.2580 O.co2 341  ASP341     -0.2456
     66  OD2       78.3480   -7.0140   24.3630 O.co2 341  ASP341     -0.2456
     67  N         82.6100   -8.3420   27.6410 N.am  342  TRP342     -0.1976
     68  CA        83.3190   -7.8940   28.8200 C.3   342  TRP342      0.1640
     69  C         84.8320   -8.0760   28.6730 C.2   342  TRP342      0.2290
     70  O         85.5830   -7.1340   28.8590 O.2   342  TRP342     -0.2864
     71  CB        82.8140   -8.6020   30.0890 C.3   342  TRP342      0.0576
     72  CG        83.4960   -8.0340   31.3230 C.ar  342  TRP342      0.0006
     73  CD1       83.3720   -6.7640   31.8200 C.ar  342  TRP342      0.0946
     74  CD2       84.4150   -8.7150   32.1860 C.ar  342  TRP342      0.0152
     75  NE1       84.1660   -6.6130   32.9440 N.ar  342  TRP342     -0.2442
     76  CE2       84.8020   -7.8010   33.1940 C.ar  342  TRP342      0.0810
     77  CE3       84.9390  -10.0150   32.2120 C.ar  342  TRP342      0.0012
     78  CZ2       85.6970   -8.1460   34.2150 C.ar  342  TRP342      0.0191
     79  CZ3       85.8280  -10.3580   33.2330 C.ar  342  TRP342      0.0001
     80  CH2       86.1960   -9.4220   34.2180 C.ar  342  TRP342      0.0015
     81  N         86.0390   -5.7930   25.9400 N.3   345  GLY345     -0.1225
     82  CA        86.0070   -4.4000   26.3990 C.3   345  GLY345      0.1811
     83  C         87.1920   -4.0230   27.2830 C.2   345  GLY345      0.2280
     84  O         87.8500   -3.0050   27.0400 O.2   345  GLY345     -0.2866
     85  N         89.3980   -1.6210   25.0530 N.3   349  LEU349     -0.1245
     86  CA        89.0900   -0.2440   25.4170 C.3   349  LEU349      0.1561
     87  C         89.9200    0.2600   26.5910 C.2   349  LEU349      0.2260
     88  O         90.3360    1.4190   26.6020 O.2   349  LEU349     -0.2867
     89  CB        87.5980   -0.0890   25.7260 C.3   349  LEU349      0.0270
     90  CG        86.6510   -0.5930   24.6310 C.3   349  LEU349      0.0019
     91  CD1       85.2270   -0.5940   25.1510 C.3   349  LEU349      0.0001
     92  CD2       86.7880    0.2660   23.3530 C.3   349  LEU349      0.0001
@<TRIPOS>BOND
     1    29    28    2
     2    28    27    1
     3    27    30    1
     4    27    26    1
     5    23    22    2
     6    30    31    1
     7    65    64   ar
     8    92    90    1
     9    26    22   am
    10    26    32    1
    11    22    21    1
    12    24    21    1
    13    24    25    1
    14    32    31    1
    15    64    66   ar
    16    64    63    1
    17    21    20    1
    18    90    91    1
    19    90    89    1
    20    85    86    1
    21    60    59    1
    22    60    63    1
    23    60    61    1
    24    86    89    1
    25    86    87    1
    26    20    14   am
    27    81    82    1
    28    62    61    2
    29    82    83    1
    30    61    67   am
    31    87    88    2
    32    15    14    2
    33    14    13    1
    34    84    83    2
    35     4     3    2
    36     1     2    1
    37    67    68    1
    38     3     2    1
    39     3    12   am
    40     2     5    1
    41    12    13    1
    42    13    16    1
    43    69    68    1
    44    69    70    2
    45    68    71    1
    46    33    34    1
    47     7     9   ar
    48     7     6   ar
    49    16    17    1
    50     5     6    1
    51     9    11   ar
    52     6     8   ar
    53    37    34    1
    54    37    38    1
    55    71    72    1
    56    34    35    1
    57    11    10   ar
    58     8    10   ar
    59    51    49    1
    60    17    19    1
    61    17    18    1
    62    36    35    2
    63    40    38    1
    64    38    39    1
    65    72    73   ar
    66    72    74   ar
    67    49    48    2
    68    49    50    1
    69    48    47    1
    70    73    75   ar
    71    74    77   ar
    72    74    76   ar
    73    77    79   ar
    74    47    46    1
    75    75    76   ar
    76    76    78   ar
    77    79    80   ar
    78    46    45    1
    79    57    58    1
    80    57    56    1
    81    78    80   ar
    82    58    52    1
    83    41    42    1
    84    56    53    1
    85    45    42    1
    86    42    43    1
    87    52    53    1
    88    53    54    1
    89    54    55    2
    90    44    43    2
