@<TRIPOS>MOLECULE
tmp/3afoA00.pdb
 153 147 0 0 0
SMALL
GASTEIGER

@<TRIPOS>ATOM
      1  N         79.0380    7.1320   27.7260 N.3   120  ASP120     -0.1225
      2  CA        78.6560    6.5450   29.0040 C.3   120  ASP120      0.1805
      3  C         77.6910    7.4380   29.7570 C.2   120  ASP120      0.2598
      4  O         76.6900    6.9550   30.2850 O.2   120  ASP120     -0.2718
      5  CB        79.8960    6.2240   29.8410 C.3   120  ASP120      0.1424
      6  CG        80.7440    5.1190   29.2270 C.2   120  ASP120      0.3668
      7  OD1       80.2040    4.2670   28.4790 O.co2 120  ASP120     -0.2456
      8  OD2       81.9620    5.0920   29.4990 O.co2 120  ASP120     -0.2456
      9  N         77.9720    8.7430   29.7570 N.am  121  GLY121     -0.1957
     10  CA        77.1000    9.7360   30.3800 C.3   121  GLY121      0.1869
     11  C         75.6800    9.7230   29.8170 C.2   121  GLY121      0.2309
     12  O         74.7170    9.9430   30.5490 O.2   121  GLY121     -0.2863
     13  N         73.9310    6.7710   31.3770 N.3   124  LEU124     -0.1231
     14  CA        73.7110    7.1080   32.7820 C.3   124  LEU124      0.1693
     15  C         72.5130    8.0520   33.0150 C.2   124  LEU124      0.2592
     16  O         71.6330    7.7630   33.8290 O.2   124  LEU124     -0.2718
     17  CB        75.0020    7.6620   33.4220 C.3   124  LEU124      0.0284
     18  CG        76.1580    6.6580   33.5820 C.3   124  LEU124      0.0019
     19  CD1       77.3060    7.3300   34.3090 C.3   124  LEU124      0.0001
     20  CD2       75.7380    5.4060   34.3350 C.3   124  LEU124      0.0001
     21  N         72.4800    9.1740   32.2980 N.am  125  HIS125     -0.1976
     22  CA        71.3680   10.1240   32.4170 C.3   125  HIS125      0.1656
     23  C         70.0450    9.5390   31.9170 C.2   125  HIS125      0.2291
     24  O         68.9980    9.7980   32.5040 O.2   125  HIS125     -0.2864
     25  CB        71.6740   11.4490   31.7010 C.3   125  HIS125      0.0771
     26  CG        72.9910   12.0560   32.0820 C.ar  125  HIS125      0.0820
     27  ND1       73.6850   12.9110   31.2500 N.ar  125  HIS125     -0.2267
     28  CD2       73.7510   11.9190   33.1970 C.ar  125  HIS125      0.1154
     29  CE1       74.8070   13.2850   31.8420 C.ar  125  HIS125      0.1986
     30  NE2       74.8750   12.6920   33.0210 N.ar  125  HIS125     -0.2212
     31  N         84.8630    7.8020   22.4050 N.3   146  LEU146     -0.1231
     32  CA        84.5080    6.5090   22.9690 C.3   146  LEU146      0.1693
     33  C         84.4800    6.4730   24.4980 C.2   146  LEU146      0.2593
     34  O         85.2720    7.1390   25.1780 O.2   146  LEU146     -0.2718
     35  CB        85.4010    5.3990   22.4050 C.3   146  LEU146      0.0284
     36  CG        85.0510    4.9410   20.9810 C.3   146  LEU146      0.0019
     37  CD1       85.8660    3.7140   20.6070 C.3   146  LEU146      0.0001
     38  CD2       83.5520    4.6490   20.8180 C.3   146  LEU146      0.0001
     39  N         83.5190    5.7130   25.0110 N.am  147  GLY147     -0.1942
     40  CA        83.4140    5.3870   26.4220 C.3   147  GLY147      0.2014
     41  C         83.5210    3.8810   26.5140 C.2   147  GLY147      0.2639
     42  O         84.0470    3.2400   25.6000 O.2   147  GLY147     -0.2714
     43  N         83.0100    3.3130   27.5990 N.am  148  PHE148     -0.1959
     44  CA        83.1450    1.8900   27.8520 C.3   148  PHE148      0.1771
     45  C         81.8500    1.0940   27.6610 C.2   148  PHE148      0.2619
     46  O         81.9000   -0.0640   27.2530 O.2   148  PHE148     -0.2715
     47  CB        83.6880    1.6660   29.2690 C.3   148  PHE148      0.0574
     48  CG        83.9830    0.2200   29.6010 C.ar  148  PHE148     -0.0200
     49  CD1       85.1260   -0.4110   29.0940 C.ar  148  PHE148     -0.0042
     50  CD2       83.1350   -0.5050   30.4340 C.ar  148  PHE148     -0.0042
     51  CE1       85.4220   -1.7420   29.4020 C.ar  148  PHE148     -0.0003
     52  CE2       83.4140   -1.8390   30.7590 C.ar  148  PHE148     -0.0003
     53  CZ        84.5680   -2.4670   30.2380 C.ar  148  PHE148     -0.0000
     54  N         80.7050    1.7150   27.9510 N.am  149  LEU149     -0.1977
     55  CA        79.4380    0.9680   28.1010 C.3   149  LEU149      0.1596
     56  C         78.6420    0.6770   26.8190 C.2   149  LEU149      0.2287
     57  O         77.9910   -0.3730   26.7350 O.2   149  LEU149     -0.2864
     58  CB        78.5320    1.6270   29.1560 C.3   149  LEU149      0.0297
     59  CG        79.1280    1.7630   30.5740 C.3   149  LEU149      0.0022
     60  CD1       78.2150    2.5700   31.4760 C.3   149  LEU149      0.0001
     61  CD2       79.4270    0.4030   31.1990 C.3   149  LEU149      0.0001
     62  N         76.3120    3.3390   38.0870 N.3   196  ASN196     -0.1225
     63  CA        77.7650    3.3450   38.2530 C.3   196  ASN196      0.1785
     64  C         78.1490    3.3920   39.7180 C.2   196  ASN196      0.2597
     65  O         78.7390    2.4450   40.2670 O.2   196  ASN196     -0.2718
     66  CB        78.3560    4.5910   37.5910 C.3   196  ASN196      0.1169
     67  CG        79.0980    4.3100   36.3070 C.2   196  ASN196      0.2627
     68  OD1       79.7510    5.2160   35.7770 O.2   196  ASN196     -0.2716
     69  ND2       79.0200    3.0860   35.7950 N.am  196  ASN196     -0.0877
     70  N         77.8460    4.5220   40.3420 N.am  197  ASP197     -0.1974
     71  CA        78.3610    4.7850   41.6640 C.3   197  ASP197      0.1709
     72  C         77.6680    5.8800   42.4380 C.2   197  ASP197      0.2293
     73  O         76.9170    6.6960   41.8880 O.2   197  ASP197     -0.2864
     74  CB        79.8680    5.0900   41.5870 C.3   197  ASP197      0.1436
     75  CG        80.2250    6.0650   40.4730 C.2   197  ASP197      0.3671
     76  OD1       79.4310    6.9930   40.1640 O.co2 197  ASP197     -0.2456
     77  OD2       81.3330    5.9040   39.9130 O.co2 197  ASP197     -0.2456
     78  N         79.1910    8.6590   45.2660 N.3   199  PHE199     -0.1241
     79  CA        80.4320    9.1150   45.9100 C.3   199  PHE199      0.1605
     80  C         80.3530   10.4240   46.6550 C.2   199  PHE199      0.2264
     81  O         79.5130   11.2740   46.3630 O.2   199  PHE199     -0.2867
     82  CB        81.6610    9.0640   44.9650 C.3   199  PHE199      0.0534
     83  CG        81.5610    9.9360   43.7410 C.ar  199  PHE199     -0.0203
     84  CD1       82.0150   11.2520   43.7620 C.ar  199  PHE199     -0.0042
     85  CD2       81.0830    9.4230   42.5510 C.ar  199  PHE199     -0.0042
     86  CE1       81.9480   12.0450   42.6120 C.ar  199  PHE199     -0.0003
     87  CE2       81.0220   10.2200   41.3920 C.ar  199  PHE199     -0.0003
     88  CZ        81.4500   11.5230   41.4300 C.ar  199  PHE199     -0.0000
     89  N         79.4120   -2.6980   37.4240 N.3   234  THR234     -0.1218
     90  CA        79.4470   -1.8150   36.2460 C.3   234  THR234      0.1862
     91  C         80.3410   -0.5880   36.5130 C.2   234  THR234      0.2287
     92  O         81.1700   -0.2140   35.6780 O.2   234  THR234     -0.2866
     93  CB        78.0100   -1.3790   35.8300 C.3   234  THR234      0.1770
     94  OG1       77.3100   -2.5290   35.3390 O.3   234  THR234     -0.2211
     95  CG2       78.0470   -0.3100   34.7350 C.3   234  THR234      0.0375
     96  N         84.7860   -0.0970   36.6710 N.3   237  THR237     -0.1203
     97  CA        85.6700    0.4300   35.6380 C.3   237  THR237      0.1994
     98  C         85.6030    1.9580   35.5280 C.2   237  THR237      0.2618
     99  O         86.2570    2.5520   34.6690 O.2   237  THR237     -0.2717
    100  CB        85.3960   -0.2470   34.2740 C.3   237  THR237      0.1784
    101  OG1       83.9910   -0.1890   33.9780 O.3   237  THR237     -0.2211
    102  CG2       85.8320   -1.7060   34.3210 C.3   237  THR237      0.0376
    103  N         84.8490    2.5940   36.4210 N.am  238  ALA238     -0.1965
    104  CA        84.6670    4.0580   36.3770 C.3   238  ALA238      0.1728
    105  C         85.5300    4.7380   37.4600 C.2   238  ALA238      0.2616
    106  O         86.7290    4.4200   37.5610 O.2   238  ALA238     -0.2715
    107  CB        83.1790    4.4080   36.5020 C.3   238  ALA238      0.0334
    108  N         84.9700    5.6450   38.2640 N.am  239  TYR239     -0.1974
    109  CA        85.7670    6.3510   39.2950 C.3   239  TYR239      0.1639
    110  C         86.5770    5.3890   40.1880 C.2   239  TYR239      0.2290
    111  O         87.7420    5.6440   40.5070 O.2   239  TYR239     -0.2864
    112  CB        84.8560    7.2230   40.1850 C.3   239  TYR239      0.0560
    113  CG        85.4990    8.4410   40.8450 C.ar  239  TYR239     -0.0198
    114  CD1       84.6900    9.4290   41.4260 C.ar  239  TYR239     -0.0009
    115  CD2       86.8870    8.6220   40.8820 C.ar  239  TYR239     -0.0009
    116  CE1       85.2320   10.5440   42.0330 C.ar  239  TYR239      0.0417
    117  CE2       87.4580    9.7600   41.4900 C.ar  239  TYR239      0.0417
    118  CZ        86.6120   10.7120   42.0620 C.ar  239  TYR239      0.1957
    119  OH        87.1230   11.8420   42.6520 O.3   239  TYR239     -0.2866
    120  N         89.9050    4.4430   38.6830 N.3   242  SER242     -0.1217
    121  CA        90.8500    5.5490   38.7890 C.3   242  SER242      0.1889
    122  C         91.4550    5.6550   40.1850 C.2   242  SER242      0.2288
    123  O         92.6030    6.0530   40.3330 O.2   242  SER242     -0.2866
    124  CB        90.1430    6.8580   38.4570 C.3   242  SER242      0.2089
    125  OG        89.5660    6.7750   37.1700 O.3   242  SER242     -0.2183
    126  N         76.1430    8.7070   40.0110 N.3   300  ASP300     -0.1225
    127  CA        76.5240    8.5580   38.5880 C.3   300  ASP300      0.1805
    128  C         77.1390    9.8330   37.9950 C.2   300  ASP300      0.2598
    129  O         76.9280   10.1500   36.8260 O.2   300  ASP300     -0.2718
    130  CB        75.3360    8.0630   37.7550 C.3   300  ASP300      0.1424
    131  CG        74.9270    6.6570   38.1220 C.2   300  ASP300      0.3668
    132  OD1       75.7620    5.9590   38.7370 O.co2 300  ASP300     -0.2456
    133  OD2       73.7880    6.2350   37.8080 O.co2 300  ASP300     -0.2456
    134  N         77.9150   10.5510   38.8050 N.am  301  GLY301     -0.1942
    135  CA        78.6190   11.7410   38.3260 C.3   301  GLY301      0.2014
    136  C         77.8470   13.0470   38.4510 C.2   301  GLY301      0.2638
    137  O         78.4430   14.1250   38.3850 O.2   301  GLY301     -0.2714
    138  N         76.5380   12.9450   38.6670 N.am  302  ILE302     -0.1977
    139  CA        75.6540   14.1080   38.8000 C.3   302  ILE302      0.1596
    140  C         75.6670   14.6510   40.2260 C.2   302  ILE302      0.2287
    141  O         75.2460   13.9590   41.1470 O.2   302  ILE302     -0.2864
    142  CB        74.2000   13.7620   38.3460 C.3   302  ILE302      0.0276
    143  CG1       74.1960   13.3320   36.8720 C.3   302  ILE302      0.0022
    144  CG2       73.2430   14.9580   38.5420 C.3   302  ILE302      0.0022
    145  CD1       74.7370   14.4140   35.9040 C.3   302  ILE302      0.0001
    146  N         90.1480   -0.5990   27.5810 N.3   350  LEU350     -0.1245
    147  CA        90.8750   -0.1850   28.7900 C.3   350  LEU350      0.1561
    148  C         92.3620   -0.5560   28.7570 C.2   350  LEU350      0.2260
    149  O         93.1410   -0.0650   29.5720 O.2   350  LEU350     -0.2867
    150  CB        90.2140   -0.7550   30.0500 C.3   350  LEU350      0.0270
    151  CG        88.7430   -0.4130   30.3160 C.3   350  LEU350      0.0019
    152  CD1       88.3470   -1.0080   31.6530 C.3   350  LEU350      0.0001
    153  CD2       88.4710    1.0840   30.2930 C.3   350  LEU350      0.0001
@<TRIPOS>BOND
     1    37    36    1
     2    38    36    1
     3    36    35    1
     4    31    32    1
     5    35    32    1
     6    32    33    1
     7    33    39   am
     8    33    34    2
     9    39    40    1
    10    42    41    2
    11    40    41    1
    12    41    43   am
    13    57    56    2
    14    56    55    1
    15    46    45    2
    16   146   147    1
    17    43    44    1
    18    45    44    1
    19    45    54   am
    20     1     2    1
    21    44    47    1
    22    54    55    1
    23    55    58    1
    24     7     6   ar
    25   148   147    1
    26   148   149    2
    27   147   150    1
    28     2     3    1
    29     2     5    1
    30    49    51   ar
    31    49    48   ar
    32    58    59    1
    33     6     8   ar
    34     6     5    1
    35    47    48    1
    36    51    53   ar
    37    48    50   ar
    38     9     3   am
    39     9    10    1
    40     3     4    2
    41    11    10    1
    42    11    12    2
    43   150   151    1
    44    53    52   ar
    45   153   151    1
    46   151   152    1
    47    50    52   ar
    48    59    61    1
    49    59    60    1
    50    27    29   ar
    51    27    26   ar
    52    13    14    1
    53    25    26    1
    54    25    22    1
    55    29    30   ar
    56    23    22    1
    57    23    24    2
    58    26    28   ar
    59    21    22    1
    60    21    15   am
    61    14    15    1
    62    14    17    1
    63    15    16    2
    64    30    28   ar
    65    17    18    1
    66    18    19    1
    67    18    20    1
    68   101   100    1
    69   100   102    1
    70   100    97    1
    71    99    98    2
    72    95    93    1
    73    94    93    1
    74    98    97    1
    75    98   103   am
    76    97    96    1
    77    92    91    2
    78    68    67    2
    79    69    67   am
    80    93    90    1
    81   145   143    1
    82    90    91    1
    83    90    89    1
    84    67    66    1
    85   104   103    1
    86   104   107    1
    87   104   105    1
    88   129   128    2
    89   143   142    1
    90   125   124    1
    91   105   106    2
    92   105   108   am
    93    66    63    1
    94   130   131    1
    95   130   127    1
    96   133   131   ar
    97   128   127    1
    98   128   134   am
    99    62    63    1
   100   131   132   ar
   101    63    64    1
   102   108   109    1
   103   135   136    1
   104   135   134    1
   105   142   144    1
   106   142   139    1
   107   137   136    2
   108   136   138   am
   109   124   121    1
   110   127   126    1
   111   138   139    1
   112   120   121    1
   113   121   122    1
   114   139   140    1
   115   109   112    1
   116   109   110    1
   117    64    65    2
   118    64    70   am
   119    77    75   ar
   120    76    75   ar
   121   112   113    1
   122   122   123    2
   123   110   111    2
   124   140   141    2
   125    70    71    1
   126    75    74    1
   127   113   115   ar
   128   113   114   ar
   129   115   117   ar
   130    87    88   ar
   131    87    85   ar
   132   114   116   ar
   133    88    86   ar
   134   117   118   ar
   135    74    71    1
   136    71    72    1
   137    73    72    2
   138   116   118   ar
   139   118   119    1
   140    85    83   ar
   141    86    84   ar
   142    83    84   ar
   143    83    82    1
   144    82    79    1
   145    78    79    1
   146    79    80    1
   147    81    80    2
