@<TRIPOS>MOLECULE
tmp/3ag6B05.pdb
 108 102 0 0 0
SMALL
GASTEIGER

@<TRIPOS>ATOM
      1  N         12.1720  -12.6550   -2.2230 N.3   175  ASP175     -0.1225
      2  CA        11.4950  -12.9720   -0.9730 C.3   175  ASP175      0.1805
      3  C         11.3280  -11.7290   -0.1120 C.2   175  ASP175      0.2597
      4  O         12.0550  -10.7460   -0.2680 O.2   175  ASP175     -0.2718
      5  CB        12.2670  -14.0410   -0.1960 C.3   175  ASP175      0.1424
      6  CG        12.1490  -15.4140   -0.8260 C.2   175  ASP175      0.3668
      7  OD1       11.0050  -15.8490   -1.0800 O.co2 175  ASP175     -0.2456
      8  OD2       13.1920  -16.0600   -1.0630 O.co2 175  ASP175     -0.2456
      9  N         10.3630  -11.7860    0.7970 N.am  176  ILE176     -0.1980
     10  CA        10.0720  -10.6730    1.6870 C.3   176  ILE176      0.1595
     11  C         11.2340  -10.3530    2.6220 C.2   176  ILE176      0.2287
     12  O         11.7220  -11.2210    3.3530 O.2   176  ILE176     -0.2864
     13  CB         8.8020  -10.9660    2.5290 C.3   176  ILE176      0.0276
     14  CG1        7.6030  -11.1630    1.5940 C.3   176  ILE176      0.0022
     15  CG2        8.5310   -9.8190    3.4940 C.3   176  ILE176      0.0022
     16  CD1        6.3010  -11.4990    2.3000 C.3   176  ILE176      0.0001
     17  N         12.6270   -8.5040    5.8540 N.3   178  ARG178     -0.1231
     18  CA        12.0200   -8.1240    7.1210 C.3   178  ARG178      0.1694
     19  C         12.9410   -7.4220    8.1100 C.2   178  ARG178      0.2592
     20  O         14.1620   -7.5950    8.0840 O.2   178  ARG178     -0.2718
     21  CB        11.4420   -9.3770    7.7840 C.3   178  ARG178      0.0321
     22  CG        10.4560  -10.1360    6.9080 C.3   178  ARG178      0.0489
     23  CD        10.1540  -11.5270    7.4550 C.3   178  ARG178      0.2205
     24  NE         9.1190  -12.1930    6.6690 N.pl3 178  ARG178     -0.0865
     25  CZ         7.8350  -11.8500    6.6810 C.cat 178  ARG178      0.5346
     26  NH1        7.4220  -10.8530    7.4490 N.pl3 178  ARG178      0.1354
     27  NH2        6.9640  -12.4920    5.9110 N.pl3 178  ARG178      0.1354
     28  N         12.3340   -6.6260    8.9840 N.am  179  GLU179     -0.1966
     29  CA        13.0750   -5.9240   10.0230 C.3   179  GLU179      0.1733
     30  C         13.5920   -7.0080   10.9680 C.2   179  GLU179      0.2616
     31  O         13.2450   -8.1800   10.8170 O.2   179  GLU179     -0.2715
     32  CB        12.1530   -4.9690   10.7840 C.3   179  GLU179      0.0429
     33  CG        11.5740   -3.8490    9.9350 C.3   179  GLU179      0.1163
     34  CD        12.6290   -2.8640    9.4650 C.2   179  GLU179      0.3649
     35  OE1       12.3180   -2.0250    8.5940 O.co2 179  GLU179     -0.2457
     36  OE2       13.7690   -2.9220    9.9700 O.co2 179  GLU179     -0.2457
     37  N         14.4100   -6.6160   11.9400 N.am  180  ALA180     -0.1963
     38  CA        14.9820   -7.5640   12.8940 C.3   180  ALA180      0.1728
     39  C         13.9390   -8.3710   13.6680 C.2   180  ALA180      0.2616
     40  O         14.1640   -9.5370   13.9870 O.2   180  ALA180     -0.2715
     41  CB        15.8930   -6.8240   13.8710 C.3   180  ALA180      0.0334
     42  N         12.8020   -7.7540   13.9670 N.am  181  ASP181     -0.1957
     43  CA        11.7500   -8.4290   14.7170 C.3   181  ASP181      0.1840
     44  C         10.7630   -9.2020   13.8470 C.2   181  ASP181      0.2622
     45  O          9.7710   -9.7370   14.3490 O.2   181  ASP181     -0.2715
     46  CB        10.9830   -7.4180   15.5680 C.3   181  ASP181      0.1450
     47  CG        10.3940   -6.2950   14.7440 C.2   181  ASP181      0.3671
     48  OD1       10.4220   -6.3900   13.4970 O.co2 181  ASP181     -0.2456
     49  OD2        9.8960   -5.3190   15.3430 O.co2 181  ASP181     -0.2456
     50  N         11.0250   -9.2480   12.5440 N.am  182  GLY182     -0.1954
     51  CA        10.1440   -9.9790   11.6520 C.3   182  GLY182      0.1869
     52  C          9.2340   -9.1370   10.7790 C.2   182  GLY182      0.2309
     53  O          8.8090   -9.5900    9.7150 O.2   182  GLY182     -0.2863
     54  N          3.8070  -11.3210   11.1670 N.3   204  SER204     -0.1217
     55  CA         4.8860  -12.2490   10.8510 C.3   204  SER204      0.1889
     56  C          4.8910  -13.4320   11.8130 C.2   204  SER204      0.2288
     57  O          5.1500  -14.5670   11.4110 O.2   204  SER204     -0.2866
     58  CB         6.2360  -11.5300   10.9170 C.3   204  SER204      0.2089
     59  OG         6.5170  -11.0810   12.2340 O.3   204  SER204     -0.2183
     60  N          2.3720  -15.8710   10.8310 N.3   207  LEU207     -0.1231
     61  CA         2.7720  -16.5800    9.6190 C.3   207  LEU207      0.1693
     62  C          3.7710  -17.6840    9.9860 C.2   207  LEU207      0.2591
     63  O          3.7960  -18.7440    9.3580 O.2   207  LEU207     -0.2718
     64  CB         3.3850  -15.5950    8.6190 C.3   207  LEU207      0.0284
     65  CG         2.5690  -15.2300    7.3710 C.3   207  LEU207      0.0019
     66  CD1        1.0740  -15.2830    7.6530 C.3   207  LEU207      0.0001
     67  CD2        2.9870  -13.8480    6.8900 C.3   207  LEU207      0.0001
     68  N          4.5950  -17.4260   11.0010 N.am  208  LEU208     -0.1980
     69  CA         5.5540  -18.4270   11.4700 C.3   208  LEU208      0.1596
     70  C          4.7300  -19.5780   12.0390 C.2   208  LEU208      0.2287
     71  O          5.0840  -20.7500   11.8980 O.2   208  LEU208     -0.2864
     72  CB         6.4550  -17.8490   12.5660 C.3   208  LEU208      0.0297
     73  CG         7.5460  -16.8770   12.1160 C.3   208  LEU208      0.0022
     74  CD1        8.2220  -16.2470   13.3270 C.3   208  LEU208      0.0001
     75  CD2        8.5630  -17.6230   11.2590 C.3   208  LEU208      0.0001
     76  N          3.1500  -21.4820    9.1940 N.3   211  GLN211     -0.1245
     77  CA         4.1920  -22.2860    8.5820 C.3   211  GLN211      0.1566
     78  C          4.4800  -23.5520    9.3840 C.2   211  GLN211      0.2260
     79  O          4.6380  -24.6290    8.8110 O.2   211  GLN211     -0.2867
     80  CB         5.4750  -21.4620    8.4300 C.3   211  GLN211      0.0367
     81  CG         6.6550  -22.2620    7.8960 C.3   211  GLN211      0.0905
     82  CD         7.9130  -21.4260    7.7410 C.2   211  GLN211      0.2608
     83  OE1        8.3700  -20.7820    8.6880 O.2   211  GLN211     -0.2717
     84  NE2        8.4840  -21.4380    6.5430 N.am  211  GLN211     -0.0878
     85  N          2.5740  -12.3280    3.9310 N.3   277  ASN277     -0.1225
     86  CA         2.1590  -13.6350    3.4470 C.3   277  ASN277      0.1785
     87  C          3.3210  -14.6030    3.4370 C.2   277  ASN277      0.2597
     88  O          4.4640  -14.2310    3.7090 O.2   277  ASN277     -0.2718
     89  CB         1.6310  -13.5140    2.0180 C.3   277  ASN277      0.1169
     90  CG         2.7490  -13.3130    1.0040 C.2   277  ASN277      0.2627
     91  OD1        3.5320  -14.2280    0.7400 O.2   277  ASN277     -0.2716
     92  ND2        2.8380  -12.1130    0.4450 N.am  277  ASN277     -0.0877
     93  N          3.0030  -15.8550    3.1300 N.am  278  ILE278     -0.1966
     94  CA         3.9990  -16.9030    2.9810 C.3   278  ILE278      0.1727
     95  C          3.5090  -17.7350    1.8040 C.2   278  ILE278      0.2616
     96  O          2.3310  -18.0780    1.7210 O.2   278  ILE278     -0.2715
     97  CB         4.1280  -17.8240    4.2260 C.3   278  ILE278      0.0290
     98  CG1        2.7680  -18.4120    4.5980 C.3   278  ILE278      0.0022
     99  CG2        4.7410  -17.0540    5.3810 C.3   278  ILE278      0.0023
    100  CD1        2.8510  -19.4760    5.6750 C.3   278  ILE278      0.0001
    101  N          4.4030  -18.0170    0.8710 N.am  279  ILE279     -0.1977
    102  CA         4.0480  -18.8290   -0.2830 C.3   279  ILE279      0.1596
    103  C          4.7200  -20.1590   -0.0040 C.2   279  ILE279      0.2287
    104  O          5.9310  -20.2110    0.2000 O.2   279  ILE279     -0.2864
    105  CB         4.5990  -18.2260   -1.5870 C.3   279  ILE279      0.0276
    106  CG1        4.0110  -16.8280   -1.7950 C.3   279  ILE279      0.0022
    107  CG2        4.2570  -19.1410   -2.7650 C.3   279  ILE279      0.0022
    108  CD1        4.6200  -16.0700   -2.9590 C.3   279  ILE279      0.0001
@<TRIPOS>BOND
     1   108   106    1
     2   107   105    1
     3     1     2    1
     4   106   105    1
     5   105   102    1
     6     7     6   ar
     7     8     6   ar
     8     2     5    1
     9     2     3    1
    10     6     5    1
    11   102   103    1
    12   102   101    1
    13     4     3    2
    14     3     9   am
    15   103   104    2
    16    92    90   am
    17    91    90    2
    18     9    10    1
    19   101    95   am
    20    90    89    1
    21    14    16    1
    22    14    13    1
    23    10    13    1
    24    10    11    1
    25    96    95    2
    26    95    94    1
    27    89    86    1
    28    13    15    1
    29    11    12    2
    30    94    93    1
    31    94    97    1
    32    93    87   am
    33    87    86    1
    34    87    88    2
    35    86    85    1
    36    97    98    1
    37    97    99    1
    38    98   100    1
    39    17    18    1
    40    27    25    1
    41    84    82   am
    42    24    25    2
    43    24    23    1
    44    25    26    1
    45    67    65    1
    46    22    23    1
    47    22    21    1
    48    18    21    1
    49    18    19    1
    50    65    66    1
    51    65    64    1
    52    82    81    1
    53    82    83    2
    54    81    80    1
    55    20    19    2
    56    19    28   am
    57    80    77    1
    58    77    76    1
    59    77    78    1
    60    35    34   ar
    61    64    61    1
    62    79    78    2
    63    28    29    1
    64    63    62    2
    65    34    33    1
    66    34    36   ar
    67    61    62    1
    68    61    60    1
    69    53    52    2
    70    33    32    1
    71    62    68   am
    72    29    32    1
    73    29    30    1
    74    52    51    1
    75    31    30    2
    76    55    58    1
    77    55    54    1
    78    55    56    1
    79    58    59    1
    80    30    37   am
    81    68    69    1
    82    75    73    1
    83    57    56    2
    84    69    70    1
    85    69    72    1
    86    51    50    1
    87    71    70    2
    88    37    38    1
    89    73    72    1
    90    73    74    1
    91    50    44   am
    92    38    39    1
    93    38    41    1
    94    48    47   ar
    95    39    42   am
    96    39    40    2
    97    44    45    2
    98    44    43    1
    99    42    43    1
   100    43    46    1
   101    47    49   ar
   102    47    46    1
