@<TRIPOS>MOLECULE
tmp/3agoA00.pdb
 126 124 0 0 0
SMALL
GASTEIGER

@<TRIPOS>ATOM
      1  N          9.0600    5.6170   -6.9930 N.3    39  TYR39      -0.1241
      2  CA         9.7060    4.7010   -6.0490 C.3    39  TYR39       0.1605
      3  C         10.7210    3.8140   -6.7750 C.2    39  TYR39       0.2264
      4  O         10.5630    3.5680   -7.9550 O.2    39  TYR39      -0.2867
      5  CB         8.6440    3.8400   -5.3210 C.3    39  TYR39       0.0534
      6  CG         7.7350    4.6700   -4.4380 C.ar   39  TYR39      -0.0201
      7  CD1        8.1230    5.0340   -3.1440 C.ar   39  TYR39      -0.0009
      8  CD2        6.5020    5.0830   -4.8800 C.ar   39  TYR39      -0.0009
      9  CE1        7.3020    5.8050   -2.3420 C.ar   39  TYR39       0.0417
     10  CE2        5.6690    5.8410   -4.0860 C.ar   39  TYR39       0.0417
     11  CZ         6.0870    6.2260   -2.8310 C.ar   39  TYR39       0.1957
     12  OH         5.2560    7.0000   -2.0720 O.3    39  TYR39      -0.2866
     13  N         12.4080    5.3010   -3.0980 N.3    41  HIS41      -0.1226
     14  CA        12.9100    6.5730   -2.5800 C.3    41  HIS41       0.1752
     15  C         14.0820    6.2980   -1.6330 C.2    41  HIS41       0.2596
     16  O         14.1400    5.2440   -1.0040 O.2    41  HIS41      -0.2718
     17  CB        11.8270    7.2950   -1.7820 C.3    41  HIS41       0.0759
     18  CG        10.6920    7.8140   -2.5980 C.ar   41  HIS41       0.0818
     19  ND1        9.5660    8.3450   -2.0090 N.ar   41  HIS41      -0.2268
     20  CD2       10.4990    7.9070   -3.9290 C.ar   41  HIS41       0.1154
     21  CE1        8.7330    8.7510   -2.9390 C.ar   41  HIS41       0.1986
     22  NE2        9.2650    8.4870   -4.1160 N.ar   41  HIS41      -0.2212
     23  N         14.9700    7.2670   -1.4390 N.am   42  GLN42      -0.1965
     24  CA        15.9790    7.1140   -0.4130 C.3    42  GLN42       0.1733
     25  C         15.3050    7.1230    0.9660 C.2    42  GLN42       0.2616
     26  O         14.3570    7.8910    1.2210 O.2    42  GLN42      -0.2715
     27  CB        16.9880    8.2580   -0.4560 C.3    42  GLN42       0.0408
     28  CG        17.8750    8.2120   -1.6690 C.3    42  GLN42       0.0908
     29  CD        17.3600    9.0170   -2.8150 C.2    42  GLN42       0.2608
     30  OE1       16.8150   10.1110   -2.6410 O.2    42  GLN42      -0.2717
     31  NE2       17.5540    8.5020   -4.0180 N.am   42  GLN42      -0.0878
     32  N         15.8480    6.2850    1.8610 N.am   43  TYR43      -0.1960
     33  CA        15.4880    6.2890    3.2600 C.3    43  TYR43       0.1771
     34  C         16.6610    6.8080    4.0610 C.2    43  TYR43       0.2619
     35  O         17.7990    6.3100    3.8820 O.2    43  TYR43      -0.2715
     36  CB        15.1450    4.8750    3.7700 C.3    43  TYR43       0.0574
     37  CG        15.0130    4.8150    5.2610 C.ar   43  TYR43      -0.0198
     38  CD1       13.8300    5.1720    5.9020 C.ar   43  TYR43      -0.0009
     39  CD2       16.0870    4.4100    6.0590 C.ar   43  TYR43      -0.0009
     40  CE1       13.7340    5.1500    7.2850 C.ar   43  TYR43       0.0417
     41  CE2       15.9900    4.3830    7.4280 C.ar   43  TYR43       0.0417
     42  CZ        14.8000    4.7460    8.0490 C.ar   43  TYR43       0.1957
     43  OH        14.6710    4.7000    9.3950 O.3    43  TYR43      -0.2866
     44  N         16.4150    7.7620    4.9610 N.am   44  TYR44      -0.1974
     45  CA        17.4380    8.2870    5.8690 C.3    44  TYR44       0.1639
     46  C         17.0530    8.0140    7.2870 C.2    44  TYR44       0.2290
     47  O         15.8790    8.0290    7.6610 O.2    44  TYR44      -0.2864
     48  CB        17.6150    9.8130    5.6520 C.3    44  TYR44       0.0560
     49  CG        17.9300   10.1420    4.2270 C.ar   44  TYR44      -0.0198
     50  CD1       19.1980    9.9180    3.6960 C.ar   44  TYR44      -0.0009
     51  CD2       16.9240   10.5550    3.3580 C.ar   44  TYR44      -0.0009
     52  CE1       19.4650   10.1640    2.3740 C.ar   44  TYR44       0.0417
     53  CE2       17.1940   10.8070    2.0150 C.ar   44  TYR44       0.0417
     54  CZ        18.4720   10.6300    1.5340 C.ar   44  TYR44       0.1957
     55  OH        18.7630   10.8720    0.2090 O.3    44  TYR44      -0.2866
     56  N         16.2960    9.0460   10.8790 N.3    46  GLU46      -0.1245
     57  CA        15.8490   10.2340   11.6020 C.3    46  GLU46       0.1567
     58  C         15.6760    9.7340   13.0320 C.2    46  GLU46       0.2260
     59  O         14.7040    9.0230   13.3260 O.2    46  GLU46      -0.2867
     60  CB        14.5810   10.8540   10.9310 C.3    46  GLU46       0.0388
     61  CG        14.9240   11.2870    9.4870 C.3    46  GLU46       0.1160
     62  CD        13.8030   11.6900    8.5360 C.2    46  GLU46       0.3649
     63  OE1       12.6470   11.8370    8.9520 O.co2  46  GLU46      -0.2457
     64  OE2       14.1240   11.8460    7.3160 O.co2  46  GLU46      -0.2457
     65  N         12.4560    9.1710   15.1240 N.3    49  GLU49      -0.1245
     66  CA        11.4800    8.1530   14.7400 C.3    49  GLU49       0.1567
     67  C         11.6590    6.8270   15.4600 C.2    49  GLU49       0.2260
     68  O         10.7640    5.9840   15.3910 O.2    49  GLU49      -0.2867
     69  CB        11.5450    7.8840   13.2290 C.3    49  GLU49       0.0388
     70  CG        11.1370    9.0890   12.3910 C.3    49  GLU49       0.1160
     71  CD        11.2630    8.8660   10.9030 C.2    49  GLU49       0.3649
     72  OE1       12.1920    8.1350   10.4710 O.co2  49  GLU49      -0.2457
     73  OE2       10.4650    9.4530   10.1270 O.co2  49  GLU49      -0.2457
     74  N         13.7300    2.7540    0.2120 N.3    62  GLU62      -0.1245
     75  CA        12.4560    2.2440    0.6560 C.3    62  GLU62       0.1567
     76  C         11.5000    2.1840   -0.5280 C.2    62  GLU62       0.2260
     77  O         11.6050    2.9320   -1.5070 O.2    62  GLU62      -0.2867
     78  CB        11.9100    3.0420    1.8530 C.3    62  GLU62       0.0388
     79  CG        11.8470    4.5290    1.7160 C.3    62  GLU62       0.1160
     80  CD        10.5340    5.0700    1.2090 C.2    62  GLU62       0.3649
     81  OE1        9.7170    4.3050    0.6660 O.co2  62  GLU62      -0.2457
     82  OE2       10.3470    6.3010    1.3480 O.co2  62  GLU62      -0.2457
     83  N          6.0420    0.4100    4.1230 N.3    85  ARG85      -0.1245
     84  CA         7.2710    0.3540    3.3420 C.3    85  ARG85       0.1563
     85  C          8.1770   -0.7740    3.7890 C.2    85  ARG85       0.2260
     86  O          8.2440   -1.1330    4.9640 O.2    85  ARG85      -0.2867
     87  CB         8.0850    1.6510    3.4890 C.3    85  ARG85       0.0307
     88  CG         7.3730    2.9220    3.1190 C.3    85  ARG85       0.0489
     89  CD         7.1190    3.0590    1.6150 C.3    85  ARG85       0.2205
     90  NE         6.4910    4.3240    1.3070 N.pl3  85  ARG85      -0.0865
     91  CZ         5.1860    4.5220    1.1940 C.cat  85  ARG85       0.5346
     92  NH1        4.3410    3.5150    1.3060 N.pl3  85  ARG85       0.1354
     93  NH2        4.7180    5.7310    0.9750 N.pl3  85  ARG85       0.1354
     94  N          3.9550    4.8960    7.7400 N.3   101  HIS101     -0.1241
     95  CA         3.4650    6.2180    8.0860 C.3   101  HIS101      0.1621
     96  C          2.3160    6.1600    9.1040 C.2   101  HIS101      0.2264
     97  O          2.0180    7.1490    9.7600 O.2   101  HIS101     -0.2867
     98  CB         3.0070    6.9420    6.8320 C.3   101  HIS101      0.0745
     99  CG         4.1150    7.3970    5.9430 C.ar  101  HIS101      0.0817
    100  ND1        5.0820    8.2940    6.3510 N.ar  101  HIS101     -0.2268
    101  CD2        4.3710    7.1260    4.6440 C.ar  101  HIS101      0.1154
    102  CE1        5.8810    8.5550    5.3340 C.ar  101  HIS101      0.1986
    103  NE2        5.4750    7.8660    4.2840 N.ar  101  HIS101     -0.2212
    104  N          4.4050   13.1140    7.9220 N.3   108  ASP108     -0.1225
    105  CA         5.3180   12.4310    7.0110 C.3   108  ASP108      0.1805
    106  C          6.3090   11.5010    7.6910 C.2   108  ASP108      0.2598
    107  O          7.1250   10.9000    6.9880 O.2   108  ASP108     -0.2718
    108  CB         6.0710   13.4140    6.0940 C.3   108  ASP108      0.1424
    109  CG         5.3120   13.7340    4.7880 C.2   108  ASP108      0.3668
    110  OD1        4.3070   13.0900    4.4450 O.co2 108  ASP108     -0.2456
    111  OD2        5.8050   14.6320    4.0500 O.co2 108  ASP108     -0.2456
    112  N          6.2150   11.3470    9.0130 N.am  109  GLY109     -0.1942
    113  CA         7.1260   10.4790    9.7030 C.3   109  GLY109      0.2014
    114  C          6.8560    9.0050    9.4360 C.2   109  GLY109      0.2638
    115  O          5.7760    8.6040    9.0300 O.2   109  GLY109     -0.2714
    116  N          7.8970    8.2130    9.7130 N.am  110  PHE110     -0.1973
    117  CA         7.7960    6.7680    9.7920 C.3   110  PHE110      0.1639
    118  C          7.9060    6.3180   11.2390 C.2   110  PHE110      0.2290
    119  O          8.5680    6.9650   12.0610 O.2   110  PHE110     -0.2864
    120  CB         8.9390    6.0780    9.0170 C.3   110  PHE110      0.0560
    121  CG         8.8310    6.1300    7.5240 C.ar  110  PHE110     -0.0200
    122  CD1        7.6720    5.7710    6.8620 C.ar  110  PHE110     -0.0042
    123  CD2        9.9420    6.4610    6.7640 C.ar  110  PHE110     -0.0042
    124  CE1        7.6320    5.7730    5.4750 C.ar  110  PHE110     -0.0003
    125  CE2        9.8910    6.4570    5.3980 C.ar  110  PHE110     -0.0003
    126  CZ         8.7390    6.1330    4.7530 C.ar  110  PHE110     -0.0000
@<TRIPOS>BOND
     1     4     3    2
     2     1     2    1
     3     3     2    1
     4     2     5    1
     5     5     6    1
     6     8     6   ar
     7     8    10   ar
     8     6     7   ar
     9    22    20   ar
    10    22    21   ar
    11    10    11   ar
    12    31    29   am
    13    20    18   ar
    14     7     9   ar
    15    13    14    1
    16    21    19   ar
    17    11     9   ar
    18    11    12    1
    19    29    30    2
    20    29    28    1
    21    18    19   ar
    22    18    17    1
    23    14    17    1
    24    14    15    1
    25    28    27    1
    26    15    23   am
    27    15    16    2
    28    77    76    2
    29    23    24    1
    30    76    75    1
    31    27    24    1
    32    24    25    1
    33    55    54    1
    34    74    75    1
    35    75    78    1
    36    81    80   ar
    37    25    26    2
    38    25    32   am
    39    93    91    1
    40    91    92    1
    41    91    90    2
    42    80    82   ar
    43    80    79    1
    44    90    89    1
    45    54    53   ar
    46    54    52   ar
    47    89    88    1
    48    79    78    1
    49    32    33    1
    50    53    51   ar
    51    52    50   ar
    52    88    87    1
    53    33    36    1
    54    33    34    1
    55    84    87    1
    56    84    85    1
    57    84    83    1
    58    51    49   ar
    59    50    49   ar
    60    36    37    1
    61    85    86    2
    62    35    34    2
    63   111   109   ar
    64    34    44   am
    65    49    48    1
    66   103   101   ar
    67   103   102   ar
    68   110   109   ar
    69   101    99   ar
    70   126   125   ar
    71   126   124   ar
    72   109   108    1
    73    44    45    1
    74    37    38   ar
    75    37    39   ar
    76   102   100   ar
    77   125   123   ar
    78   124   122   ar
    79    48    45    1
    80    45    46    1
    81    38    40   ar
    82    99   100   ar
    83    99    98    1
    84    39    41   ar
    85   108   105    1
    86   123   121   ar
    87    98    95    1
    88   122   121   ar
    89   107   106    2
    90   105   106    1
    91   105   104    1
    92    40    42   ar
    93    46    47    2
    94    64    62   ar
    95    41    42   ar
    96   121   120    1
    97   106   112   am
    98    94    95    1
    99    42    43    1
   100    95    96    1
   101    62    63   ar
   102    62    61    1
   103   112   113    1
   104   120   117    1
   105   115   114    2
   106    96    97    2
   107   114   113    1
   108   114   116   am
   109    61    60    1
   110   116   117    1
   111   117   118    1
   112    73    71   ar
   113    72    71   ar
   114    56    57    1
   115    71    70    1
   116    60    57    1
   117   118   119    2
   118    57    58    1
   119    70    69    1
   120    58    59    2
   121    69    66    1
   122    66    65    1
   123    66    67    1
   124    68    67    2
