@<TRIPOS>MOLECULE
tmp/3agyA00.pdb
 136 132 0 0 0
SMALL
GASTEIGER

@<TRIPOS>ATOM
      1  N          2.7110   -3.5420   87.8430 N.3     2  HIS2       -0.1241
      2  CA         3.6510   -2.5550   88.4280 C.3     2  HIS2        0.1621
      3  C          4.5230   -3.1310   89.5560 C.2     2  HIS2        0.2264
      4  O          4.0240   -3.8010   90.4680 O.2     2  HIS2       -0.2867
      5  CB         2.9280   -1.2940   88.9320 C.3     2  HIS2        0.0745
      6  CG         3.8550   -0.1440   89.2190 C.ar    2  HIS2        0.0817
      7  ND1        4.1550    0.8280   88.2820 N.ar    2  HIS2       -0.2268
      8  CD2        4.5680    0.1760   90.3310 C.ar    2  HIS2        0.1154
      9  CE1        5.0030    1.6990   88.8060 C.ar    2  HIS2        0.1986
     10  NE2        5.2710    1.3260   90.0460 N.ar    2  HIS2       -0.2212
     11  N          6.4870   -3.9380   92.8100 N.3     4  LEU4       -0.1231
     12  CA         6.4790   -3.6120   94.2320 C.3     4  LEU4        0.1693
     13  C          7.8090   -4.0680   94.8510 C.2     4  LEU4        0.2591
     14  O          7.9560   -5.2330   95.2260 O.2     4  LEU4       -0.2718
     15  CB         5.2860   -4.2500   94.9620 C.3     4  LEU4        0.0284
     16  CG         5.0410   -3.7930   96.4030 C.3     4  LEU4        0.0019
     17  CD1        4.5710   -2.3380   96.4830 C.3     4  LEU4        0.0001
     18  CD2        4.0680   -4.7200   97.1570 C.3     4  LEU4        0.0001
     19  N          8.7710   -3.1410   94.9160 N.am    5  ARG5       -0.1980
     20  CA        10.1300   -3.4290   95.4160 C.3     5  ARG5        0.1597
     21  C         10.1420   -3.5770   96.9310 C.2     5  ARG5        0.2287
     22  O          9.7040   -2.6800   97.6490 O.2     5  ARG5       -0.2864
     23  CB        11.1310   -2.3380   94.9540 C.3     5  ARG5        0.0334
     24  CG        11.0000   -1.9780   93.4490 C.3     5  ARG5        0.0492
     25  CD        12.3440   -1.7090   92.7360 C.3     5  ARG5        0.2205
     26  NE        13.3020   -0.9700   93.5560 N.pl3   5  ARG5       -0.0865
     27  CZ        14.6220   -0.9520   93.3410 C.cat   5  ARG5        0.5346
     28  NH1       15.1600   -1.6240   92.3170 N.pl3   5  ARG5        0.1354
     29  NH2       15.4110   -0.2540   94.1510 N.pl3   5  ARG5        0.1354
     30  N          3.1800   -1.6130  103.0030 N.3    17  LYS17      -0.1231
     31  CA         3.5830   -0.6800  101.9510 C.3    17  LYS17       0.1693
     32  C          2.4250    0.2600  101.6170 C.2    17  LYS17       0.2592
     33  O          1.3180   -0.1990  101.3700 O.2    17  LYS17      -0.2718
     34  CB         3.9710   -1.4400  100.6830 C.3    17  LYS17       0.0285
     35  CG         5.2540   -2.2080  100.7520 C.3    17  LYS17       0.0035
     36  CD         6.3930   -1.3130  100.3550 C.3    17  LYS17       0.0206
     37  CE         7.7140   -2.0100  100.5150 C.3    17  LYS17       0.1093
     38  NZ         8.7960   -1.0080  100.3660 N.3    17  LYS17      -0.1314
     39  N          2.6810    1.5670  101.6180 N.am   18  LYS18      -0.1966
     40  CA         1.6980    2.5520  101.1640 C.3    18  LYS18       0.1728
     41  C          2.1380    3.1110   99.8120 C.2    18  LYS18       0.2616
     42  O          3.2440    3.6560   99.6860 O.2    18  LYS18      -0.2715
     43  CB         1.5050    3.6630  102.2020 C.3    18  LYS18       0.0311
     44  CG         0.7970    3.1740  103.4550 C.3    18  LYS18       0.0038
     45  CD         0.7180    4.2260  104.5500 C.3    18  LYS18       0.0206
     46  CE         0.0330    3.6580  105.7870 C.3    18  LYS18       0.1093
     47  NZ        -1.3960    3.2470  105.5160 N.3    18  LYS18      -0.1314
     48  N          1.2970    2.9370   98.7950 N.am   19  MET19      -0.1963
     49  CA         1.6250    3.3750   97.4330 C.3    19  MET19       0.1736
     50  C          0.6330    4.4420   96.9580 C.2    19  MET19       0.2616
     51  O         -0.5780    4.2160   96.9580 O.2    19  MET19      -0.2715
     52  CB         1.6390    2.1970   96.4550 C.3    19  MET19       0.0427
     53  CG         2.4450    0.9960   96.9170 C.3    19  MET19       0.0599
     54  SD         4.2230    1.3000   96.9780 S.3    19  MET19      -0.1393
     55  CE         4.6620    1.2540   95.2380 C.3    19  MET19       0.0692
     56  N          1.1540    5.6070   96.5730 N.am   20  LYS20      -0.1963
     57  CA         0.3200    6.7020   96.0730 C.3    20  LYS20       0.1728
     58  C          0.1390    6.5180   94.5810 C.2    20  LYS20       0.2616
     59  O          1.1150    6.4560   93.8290 O.2    20  LYS20      -0.2715
     60  CB         0.9640    8.0600   96.3770 C.3    20  LYS20       0.0311
     61  CG         0.0050    9.2590   96.3340 C.3    20  LYS20       0.0038
     62  CD         0.7400   10.5740   96.6330 C.3    20  LYS20       0.0206
     63  CE         1.5270   11.1110   95.4250 C.3    20  LYS20       0.1093
     64  NZ         0.9250   12.3440   94.8110 N.3    20  LYS20      -0.1314
     65  N         -1.1120    6.3870   94.1580 N.am   21  ILE21      -0.1963
     66  CA        -1.4230    6.3130   92.7400 C.3    21  ILE21       0.1727
     67  C         -2.1160    7.5920   92.2710 C.2    21  ILE21       0.2617
     68  O         -2.9340    8.1690   92.9820 O.2    21  ILE21      -0.2715
     69  CB        -2.2720    5.0650   92.3670 C.3    21  ILE21       0.0290
     70  CG1       -2.6020    5.0910   90.8730 C.3    21  ILE21       0.0022
     71  CG2       -3.5790    4.9950   93.1820 C.3    21  ILE21       0.0023
     72  CD1       -2.4720    3.7590   90.1980 C.3    21  ILE21       0.0001
     73  N         -1.7650    8.0240   91.0720 N.am   22  SER22      -0.1936
     74  CA        -2.4470    9.1310   90.4350 C.3    22  SER22       0.2055
     75  C         -3.0600    8.6300   89.1330 C.2    22  SER22       0.2643
     76  O         -2.3410    8.2820   88.1870 O.2    22  SER22      -0.2714
     77  CB        -1.4920   10.2960   90.1860 C.3    22  SER22       0.2130
     78  OG        -2.2340   11.4840   89.9800 O.3    22  SER22      -0.2179
     79  N         -4.3920    8.5740   89.1090 N.am   23  HIS23      -0.1959
     80  CA        -5.1450    8.0820   87.9410 C.3    23  HIS23       0.1787
     81  C         -6.1940    9.0930   87.4450 C.2    23  HIS23       0.2620
     82  O         -6.6260    9.9850   88.1810 O.2    23  HIS23      -0.2715
     83  CB        -5.8140    6.7230   88.2220 C.3    23  HIS23       0.0785
     84  CG        -6.5820    6.6690   89.5110 C.ar   23  HIS23       0.0821
     85  ND1       -6.9890    5.4800   90.0830 N.ar   23  HIS23      -0.2267
     86  CD2       -7.0050    7.6480   90.3470 C.ar   23  HIS23       0.1154
     87  CE1       -7.6300    5.7280   91.2110 C.ar   23  HIS23       0.1986
     88  NE2       -7.6510    7.0350   91.3970 N.ar   23  HIS23      -0.2212
     89  N         -6.5820    8.9370   86.1850 N.am   24  LYS24      -0.1977
     90  CA        -7.6060    9.7870   85.5800 C.3    24  LYS24       0.1596
     91  C         -9.0000    9.3080   85.9830 C.2    24  LYS24       0.2287
     92  O         -9.2640    8.1050   86.0560 O.2    24  LYS24      -0.2864
     93  CB        -7.4280    9.8400   84.0640 C.3    24  LYS24       0.0298
     94  CG        -6.1570   10.5830   83.6650 C.3    24  LYS24       0.0038
     95  CD        -6.0050   10.7360   82.1710 C.3    24  LYS24       0.0206
     96  CE        -4.5320   10.8200   81.7850 C.3    24  LYS24       0.1093
     97  NZ        -3.9290    9.4480   81.6950 N.3    24  LYS24      -0.1314
     98  N         -4.1130    6.5530   97.8300 N.3    39  ILE39      -0.1245
     99  CA        -3.1250    5.7460   98.5360 C.3    39  ILE39       0.1561
    100  C         -3.6240    4.3010   98.6800 C.2    39  ILE39       0.2260
    101  O         -4.6910    4.0470   99.2510 O.2    39  ILE39      -0.2867
    102  CB        -2.7150    6.4060   99.8790 C.3    39  ILE39       0.0252
    103  CG1       -1.7470    7.5600   99.5870 C.3    39  ILE39       0.0019
    104  CG2       -2.0770    5.3870  100.8430 C.3    39  ILE39       0.0019
    105  CD1       -1.7110    8.6470  100.6460 C.3    39  ILE39       0.0001
    106  N         -7.2880    1.4940   87.7770 N.3    60  GLY60      -0.1210
    107  CA        -6.6690    2.0270   86.5610 C.3    60  GLY60       0.1956
    108  C         -7.3150    3.3280   86.1100 C.2    60  GLY60       0.2611
    109  O         -8.1520    3.9020   86.8230 O.2    60  GLY60      -0.2717
    110  N         -6.9320    3.7880   84.9220 N.am   61  ASP61      -0.1973
    111  CA        -7.4670    5.0230   84.3600 C.3    61  ASP61       0.1709
    112  C         -8.9470    4.8830   84.0090 C.2    61  ASP61       0.2293
    113  O         -9.3580    3.9090   83.3730 O.2    61  ASP61      -0.2864
    114  CB        -6.6720    5.4460   83.1220 C.3    61  ASP61       0.1436
    115  CG        -5.4570    6.3160   83.4580 C.2    61  ASP61       0.3671
    116  OD1       -5.3670    6.8370   84.5950 O.co2  61  ASP61      -0.2456
    117  OD2       -4.5910    6.4870   82.5660 O.co2  61  ASP61      -0.2456
    118  N         -5.2660   -2.5550   88.7060 N.3    71  ILE71      -0.1245
    119  CA        -3.8330   -2.3610   88.9660 C.3    71  ILE71       0.1561
    120  C         -3.2980   -3.5830   89.6900 C.2    71  ILE71       0.2260
    121  O         -3.7910   -3.9480   90.7680 O.2    71  ILE71      -0.2867
    122  CB        -3.5400   -1.0510   89.7270 C.3    71  ILE71       0.0252
    123  CG1       -3.6720    0.1150   88.7550 C.3    71  ILE71       0.0019
    124  CG2       -2.1120   -1.0460   90.3560 C.3    71  ILE71       0.0019
    125  CD1       -3.8630    1.4130   89.4380 C.3    71  ILE71       0.0001
    126  N          0.0470   -5.1860   91.2940 N.3    73  PHE73      -0.1241
    127  CA         1.4240   -5.0630   91.7980 C.3    73  PHE73       0.1605
    128  C          2.0950   -6.4270   91.7800 C.2    73  PHE73       0.2264
    129  O          1.4570   -7.4390   92.0880 O.2    73  PHE73      -0.2867
    130  CB         1.4510   -4.4940   93.2090 C.3    73  PHE73       0.0534
    131  CG         1.1680   -3.0210   93.2800 C.ar   73  PHE73      -0.0203
    132  CD1       -0.0770   -2.5630   93.7100 C.ar   73  PHE73      -0.0042
    133  CD2        2.1400   -2.0890   92.9050 C.ar   73  PHE73      -0.0042
    134  CE1       -0.3460   -1.1980   93.7930 C.ar   73  PHE73      -0.0003
    135  CE2        1.8850   -0.7140   92.9690 C.ar   73  PHE73      -0.0003
    136  CZ         0.6390   -0.2650   93.4200 C.ar   73  PHE73      -0.0000
@<TRIPOS>BOND
     1    97    96    1
     2    96    95    1
     3    95    94    1
     4   117   115   ar
     5   114   115    1
     6   114   111    1
     7   113   112    2
     8   115   116   ar
     9    94    93    1
    10   112   111    1
    11    93    90    1
    12   111   110    1
    13   110   108   am
    14    90    91    1
    15    90    89    1
    16    91    92    2
    17   108   107    1
    18   108   109    2
    19    89    81   am
    20   107   106    1
    21    81    80    1
    22    81    82    2
    23     1     2    1
    24    80    83    1
    25    80    79    1
    26    76    75    2
    27    83    84    1
    28     7     9   ar
    29     7     6   ar
    30     2     5    1
    31     2     3    1
    32   118   119    1
    33   123   125    1
    34   123   122    1
    35     9    10   ar
    36     5     6    1
    37   119   120    1
    38   119   122    1
    39    79    75   am
    40    75    74    1
    41     6     8   ar
    42    84    85   ar
    43    84    86   ar
    44     3     4    2
    45   120   121    2
    46   122   124    1
    47    78    77    1
    48    10     8   ar
    49    85    87   ar
    50    77    74    1
    51    72    70    1
    52    86    88   ar
    53    74    73    1
    54    70    69    1
    55    73    67   am
    56    87    88   ar
    57   126   127    1
    58   128   127    1
    59   128   129    2
    60   127   130    1
    61    67    66    1
    62    67    68    2
    63    28    27    1
    64    69    66    1
    65    69    71    1
    66    25    24    1
    67    25    26    1
    68    66    65    1
    69    11    12    1
    70   133   135   ar
    71   133   131   ar
    72   135   136   ar
    73   130   131    1
    74   131   132   ar
    75    27    26    2
    76    27    29    1
    77   136   134   ar
    78    24    23    1
    79   132   134   ar
    80    59    58    2
    81    65    58   am
    82    12    13    1
    83    12    15    1
    84    58    57    1
    85    64    63    1
    86    13    19   am
    87    13    14    2
    88    19    20    1
    89    23    20    1
    90    15    16    1
    91    55    54    1
    92    20    21    1
    93    63    62    1
    94    57    60    1
    95    57    56    1
    96    61    60    1
    97    61    62    1
    98    16    17    1
    99    16    18    1
   100    52    53    1
   101    52    49    1
   102    56    50   am
   103    53    54    1
   104    21    22    2
   105    51    50    2
   106    50    49    1
   107    49    48    1
   108    98    99    1
   109    99   100    1
   110    99   102    1
   111   100   101    2
   112    48    41   am
   113   103   102    1
   114   103   105    1
   115    42    41    2
   116    41    40    1
   117   102   104    1
   118    36    37    1
   119    36    35    1
   120    38    37    1
   121    34    35    1
   122    34    31    1
   123    40    39    1
   124    40    43    1
   125    33    32    2
   126    32    39   am
   127    32    31    1
   128    31    30    1
   129    43    44    1
   130    44    45    1
   131    45    46    1
   132    47    46    1
