@<TRIPOS>MOLECULE
tmp/3agyB01.pdb
 134 135 0 0 0
SMALL
GASTEIGER

@<TRIPOS>ATOM
      1  N         16.9750  -36.9090   55.0960 N.3    41  THR41      -0.1203
      2  CA        18.3270  -36.3450   55.0830 C.3    41  THR41       0.1994
      3  C         18.3330  -34.9000   55.5860 C.2    41  THR41       0.2618
      4  O         17.6060  -34.0390   55.0670 O.2    41  THR41      -0.2717
      5  CB        18.9850  -36.4600   53.6800 C.3    41  THR41       0.1784
      6  OG1       19.1420  -37.8450   53.3420 O.3    41  THR41      -0.2211
      7  CG2       20.3540  -35.7610   53.6470 C.3    41  THR41       0.0376
      8  N         19.1460  -34.6650   56.6190 N.am   42  ILE42      -0.1965
      9  CA        19.3610  -33.3230   57.1710 C.3    42  ILE42       0.1727
     10  C         20.7920  -32.8720   56.9150 C.2    42  ILE42       0.2616
     11  O         21.7560  -33.5600   57.2900 O.2    42  ILE42      -0.2715
     12  CB        19.0790  -33.2430   58.6910 C.3    42  ILE42       0.0290
     13  CG1       17.7550  -33.9470   59.0310 C.3    42  ILE42       0.0022
     14  CG2       19.0970  -31.7750   59.1380 C.3    42  ILE42       0.0023
     15  CD1       17.4360  -34.0570   60.5200 C.3    42  ILE42       0.0001
     16  N         20.9080  -31.7250   56.2530 N.am   43  GLU43      -0.1977
     17  CA        22.1950  -31.1000   56.0050 C.3    43  GLU43       0.1602
     18  C         22.5070  -30.0790   57.1030 C.2    43  GLU43       0.2287
     19  O         21.9220  -28.9910   57.1540 O.2    43  GLU43      -0.2864
     20  CB        22.2230  -30.4530   54.6200 C.3    43  GLU43       0.0415
     21  CG        23.5510  -30.6110   53.9290 C.3    43  GLU43       0.1163
     22  CD        24.0060  -32.0700   53.8610 C.2    43  GLU43       0.3649
     23  OE1       23.1670  -32.9660   53.6070 O.co2  43  GLU43      -0.2457
     24  OE2       25.2110  -32.3220   54.0580 O.co2  43  GLU43      -0.2457
     25  N         24.3640  -27.2770   58.5630 N.3    45  LYS45      -0.1245
     26  CA        25.2360  -26.2060   58.0760 C.3    45  LYS45       0.1561
     27  C         26.2190  -25.8030   59.1650 C.2    45  LYS45       0.2260
     28  O         25.8240  -25.6980   60.3350 O.2    45  LYS45      -0.2867
     29  CB        24.4090  -24.9830   57.6510 C.3    45  LYS45       0.0271
     30  CG        23.5650  -25.1740   56.3610 C.3    45  LYS45       0.0035
     31  CD        24.4510  -25.2440   55.1050 C.3    45  LYS45       0.0206
     32  CE        23.6460  -25.5080   53.8290 C.3    45  LYS45       0.1093
     33  NZ        23.4220  -26.9520   53.5680 N.3    45  LYS45      -0.1314
     34  N         25.5610  -23.7640   62.8370 N.3    48  TRP48      -0.1227
     35  CA        24.1450  -23.7460   63.2540 C.3    48  TRP48       0.1737
     36  C         24.0000  -23.8470   64.7750 C.2    48  TRP48       0.2595
     37  O         24.6810  -24.6480   65.4280 O.2    48  TRP48      -0.2718
     38  CB        23.3570  -24.9030   62.6360 C.3    48  TRP48       0.0564
     39  CG        22.5700  -24.5900   61.3690 C.ar   48  TRP48       0.0003
     40  CD1       22.5070  -23.4070   60.6880 C.ar   48  TRP48       0.0946
     41  CD2       21.7690  -25.5270   60.6310 C.ar   48  TRP48       0.0152
     42  NE1       21.6910  -23.5460   59.5730 N.ar   48  TRP48      -0.2442
     43  CE2       21.2330  -24.8380   59.5200 C.ar   48  TRP48       0.0810
     44  CE3       21.4520  -26.8870   60.8070 C.ar   48  TRP48       0.0012
     45  CZ2       20.3870  -25.4620   58.5910 C.ar   48  TRP48       0.0191
     46  CZ3       20.6060  -27.5070   59.8850 C.ar   48  TRP48       0.0001
     47  CH2       20.0950  -26.7960   58.7860 C.ar   48  TRP48       0.0015
     48  N         23.0750  -23.0600   65.3010 N.am   49  LYS49      -0.1966
     49  CA        22.8150  -23.0070   66.7230 C.3    49  LYS49       0.1728
     50  C         21.6670  -23.9070   67.1500 C.2    49  LYS49       0.2616
     51  O         20.7530  -24.2030   66.3710 O.2    49  LYS49      -0.2715
     52  CB        22.5430  -21.5780   67.1340 C.3    49  LYS49       0.0311
     53  CG        23.7240  -20.6790   66.8560 C.3    49  LYS49       0.0038
     54  CD        23.4270  -19.2650   67.2800 C.3    49  LYS49       0.0206
     55  CE        24.6870  -18.4460   67.2570 C.3    49  LYS49       0.1093
     56  NZ        24.3430  -17.0310   67.5670 N.3    49  LYS49      -0.1314
     57  N         21.7540  -24.3550   68.3980 N.am   50  GLU50      -0.1963
     58  CA        20.7320  -25.1660   69.0320 C.3    50  GLU50       0.1733
     59  C         19.3960  -24.4350   68.9260 C.2    50  GLU50       0.2617
     60  O         19.3180  -23.2180   69.1320 O.2    50  GLU50      -0.2715
     61  CB        21.1310  -25.4220   70.4910 C.3    50  GLU50       0.0429
     62  CG        20.0000  -25.8000   71.4250 C.3    50  GLU50       0.1163
     63  CD        20.5170  -26.3720   72.7290 C.2    50  GLU50       0.3649
     64  OE1       21.2100  -27.4140   72.7140 O.co2  50  GLU50      -0.2457
     65  OE2       20.2220  -25.7770   73.7710 O.co2  50  GLU50      -0.2457
     66  N         18.3570  -25.1870   68.5690 N.am   51  GLY51      -0.1940
     67  CA        17.0230  -24.6110   68.3790 C.3    51  GLY51       0.2014
     68  C         16.6720  -24.4410   66.9110 C.2    51  GLY51       0.2640
     69  O         15.5280  -24.1050   66.5740 O.2    51  GLY51      -0.2714
     70  N         17.6520  -24.6610   66.0300 N.am   52  THR52      -0.1936
     71  CA        17.3720  -24.6760   64.5970 C.3    52  THR52       0.2028
     72  C         16.3540  -25.7850   64.3140 C.2    52  THR52       0.2642
     73  O         16.5410  -26.9270   64.7510 O.2    52  THR52      -0.2714
     74  CB        18.6490  -24.8890   63.7400 C.3    52  THR52       0.1808
     75  OG1       19.6180  -23.8900   64.0700 O.3    52  THR52      -0.2208
     76  CG2       18.3230  -24.7780   62.2420 C.3    52  THR52       0.0379
     77  N         15.2840  -25.4380   63.5940 N.am   53  LYS53      -0.1963
     78  CA        14.2100  -26.3930   63.2720 C.3    53  LYS53       0.1728
     79  C         14.2900  -26.8630   61.8230 C.2    53  LYS53       0.2616
     80  O         14.4100  -26.0580   60.9080 O.2    53  LYS53      -0.2715
     81  CB        12.8290  -25.7920   63.5390 C.3    53  LYS53       0.0311
     82  CG        12.4980  -25.5380   65.0010 C.3    53  LYS53       0.0038
     83  CD        10.9950  -25.3330   65.1760 C.3    53  LYS53       0.0206
     84  CE        10.6380  -24.7620   66.5600 C.3    53  LYS53       0.1093
     85  NZ        11.0160  -23.3130   66.7330 N.3    53  LYS53      -0.1314
     86  N         14.2140  -28.1760   61.6400 N.am   54  ILE54      -0.1963
     87  CA        14.2450  -28.8060   60.3240 C.3    54  ILE54       0.1727
     88  C         12.9550  -29.6280   60.1430 C.2    54  ILE54       0.2617
     89  O         12.8010  -30.7080   60.7310 O.2    54  ILE54      -0.2715
     90  CB        15.4940  -29.7070   60.1610 C.3    54  ILE54       0.0290
     91  CG1       16.7760  -28.9080   60.4390 C.3    54  ILE54       0.0022
     92  CG2       15.5530  -30.3100   58.7590 C.3    54  ILE54       0.0023
     93  CD1       17.7170  -29.5870   61.4070 C.3    54  ILE54       0.0001
     94  N         12.0450  -29.1010   59.3220 N.am   55  THR55      -0.1937
     95  CA        10.6910  -29.6530   59.1650 C.3    55  THR55       0.2028
     96  C         10.5080  -30.4230   57.8580 C.2    55  THR55       0.2642
     97  O         10.6170  -29.8520   56.7650 O.2    55  THR55      -0.2714
     98  CB         9.6120  -28.5390   59.2720 C.3    55  THR55       0.1808
     99  OG1        9.5970  -28.0150   60.6040 O.3    55  THR55      -0.2208
    100  CG2        8.2210  -29.0780   58.9370 C.3    55  THR55       0.0379
    101  N         10.2260  -31.7180   57.9850 N.am   56  PHE56      -0.1960
    102  CA         9.8420  -32.5370   56.8400 C.3    56  PHE56       0.1756
    103  C          8.3060  -32.6170   56.7310 C.2    56  PHE56       0.2461
    104  O          7.6610  -33.2730   57.5550 O.2    56  PHE56      -0.2730
    105  CB        10.4640  -33.9340   56.9440 C.3    56  PHE56       0.0574
    106  CG        11.9440  -33.9600   56.7010 C.ar   56  PHE56      -0.0200
    107  CD1       12.8400  -33.7090   57.7400 C.ar   56  PHE56      -0.0042
    108  CD2       12.4470  -34.2380   55.4330 C.ar   56  PHE56      -0.0042
    109  CE1       14.2210  -33.7400   57.5170 C.ar   56  PHE56      -0.0003
    110  CE2       13.8280  -34.2720   55.1980 C.ar   56  PHE56      -0.0003
    111  CZ        14.7140  -34.0260   56.2440 C.ar   56  PHE56      -0.0000
    112  N          7.7140  -31.9390   55.7200 N.am   57  PRO57      -0.2727
    113  CA         6.2480  -31.8630   55.6590 C.3    57  PRO57       0.1402
    114  C          5.5840  -33.2270   55.4500 C.2    57  PRO57       0.2269
    115  O          6.0170  -34.0120   54.5970 O.2    57  PRO57      -0.2865
    116  CB         5.9810  -30.9350   54.4600 C.3    57  PRO57       0.0296
    117  CG         7.2770  -30.2290   54.2080 C.3    57  PRO57       0.0237
    118  CD         8.3390  -31.2140   54.5970 C.3    57  PRO57       0.0939
    119  N         27.2360  -18.9360   61.4220 N.3   141  PRO141     -0.2102
    120  CA        26.4640  -19.7080   60.4360 C.3   141  PRO141      0.1504
    121  C         26.0780  -18.9290   59.1560 C.2   141  PRO141      0.2575
    122  O         26.0790  -19.5210   58.0900 O.2   141  PRO141     -0.2718
    123  CB        25.2130  -20.1330   61.2220 C.3   141  PRO141      0.0282
    124  CG        25.0800  -19.0780   62.2990 C.3   141  PRO141      0.0208
    125  CD        26.4880  -18.7310   62.6780 C.3   141  PRO141      0.0893
    126  N         25.7890  -17.6360   59.2650 N.am  142  LYS142     -0.1980
    127  CA        25.4590  -16.8170   58.0820 C.3   142  LYS142      0.1596
    128  C         26.6930  -16.4030   57.2530 C.2   142  LYS142      0.2287
    129  O         26.5880  -16.2260   56.0340 O.2   142  LYS142     -0.2864
    130  CB        24.6650  -15.5820   58.4920 C.3   142  LYS142      0.0298
    131  CG        23.2700  -15.9060   58.9980 C.3   142  LYS142      0.0038
    132  CD        22.6820  -14.7240   59.7400 C.3   142  LYS142      0.0206
    133  CE        21.2060  -14.9520   60.0580 C.3   142  LYS142      0.1093
    134  NZ        20.6810  -13.8010   60.8280 N.3   142  LYS142     -0.1314
@<TRIPOS>BOND
     1     6     5    1
     2    33    32    1
     3    23    22   ar
     4     7     5    1
     5     5     2    1
     6    32    31    1
     7    22    21    1
     8    22    24   ar
     9    21    20    1
    10   117   116    1
    11   117   118    1
    12   116   113    1
    13   115   114    2
    14   118   112    1
    15    20    17    1
    16     4     3    2
    17     2     1    1
    18     2     3    1
    19    31    30    1
    20   110   108   ar
    21   110   111   ar
    22   108   106   ar
    23   114   113    1
    24     3     8   am
    25   113   112    1
    26   112   103   am
    27    17    16    1
    28    17    18    1
    29   129   128    2
    30   111   109   ar
    31    16    10   am
    32    30    29    1
    33     8     9    1
    34   106   105    1
    35   106   107   ar
    36   103   102    1
    37   103   104    2
    38    97    96    2
    39   102   105    1
    40   102   101    1
    41    10     9    1
    42    10    11    2
    43    18    19    2
    44     9    12    1
    45   128   127    1
    46   109   107   ar
    47    29    26    1
    48    96   101   am
    49    96    95    1
    50    26    25    1
    51    26    27    1
    52   127   130    1
    53   127   126    1
    54   122   121    2
    55   130   131    1
    56    45    47   ar
    57    45    43   ar
    58    12    13    1
    59    12    14    1
    60    92    90    1
    61    47    46   ar
    62   100    98    1
    63   131   132    1
    64    13    15    1
    65   121   126   am
    66   121   120    1
    67    27    28    2
    68    95    98    1
    69    95    94    1
    70    98    99    1
    71    94    88   am
    72    43    42   ar
    73    43    41   ar
    74    42    40   ar
    75   132   133    1
    76    46    44   ar
    77   133   134    1
    78    88    87    1
    79    88    89    2
    80    90    87    1
    81    90    91    1
    82    87    86    1
    83   120   123    1
    84   120   119    1
    85    91    93    1
    86    41    44   ar
    87    41    39   ar
    88    40    39   ar
    89    80    79    2
    90   123   124    1
    91    39    38    1
    92   119   125    1
    93    86    79   am
    94    79    78    1
    95    76    74    1
    96   124   125    1
    97    38    35    1
    98    34    35    1
    99    35    36    1
   100    78    81    1
   101    78    77    1
   102    81    82    1
   103    77    72   am
   104    74    75    1
   105    74    71    1
   106    72    71    1
   107    72    73    2
   108    71    70    1
   109    36    48   am
   110    36    37    2
   111    82    83    1
   112    83    84    1
   113    48    49    1
   114    70    68   am
   115    51    50    2
   116    84    85    1
   117    69    68    2
   118    49    52    1
   119    49    50    1
   120    53    52    1
   121    53    54    1
   122    68    67    1
   123    50    57   am
   124    55    54    1
   125    55    56    1
   126    67    66    1
   127    57    58    1
   128    66    59   am
   129    59    58    1
   130    59    60    2
   131    58    61    1
   132    61    62    1
   133    62    63    1
   134    64    63   ar
   135    63    65   ar
