@<TRIPOS>MOLECULE
tmp/3agzA01.pdb
 134 135 0 0 0
SMALL
GASTEIGER

@<TRIPOS>ATOM
      1  N        -22.4120   -7.3780   28.1490 N.3    50  THR50      -0.1203
      2  CA       -22.4280   -8.4820   29.0990 C.3    50  THR50       0.1994
      3  C        -22.5390   -9.8170   28.3950 C.2    50  THR50       0.2618
      4  O        -23.4800  -10.0520   27.6180 O.2    50  THR50      -0.2717
      5  CB       -23.5660   -8.3280   30.1260 C.3    50  THR50       0.1784
      6  OG1      -23.3760   -7.0930   30.8360 O.3    50  THR50      -0.2211
      7  CG2      -23.5700   -9.4730   31.1080 C.3    50  THR50       0.0376
      8  N        -21.5840  -10.6950   28.6780 N.am   51  ILE51      -0.1965
      9  CA       -21.5530  -11.9670   28.0150 C.3    51  ILE51       0.1727
     10  C        -21.7330  -13.0940   29.0180 C.2    51  ILE51       0.2616
     11  O        -20.8620  -13.3450   29.8730 O.2    51  ILE51      -0.2715
     12  CB       -20.2550  -12.1620   27.2430 C.3    51  ILE51       0.0290
     13  CG1      -20.0650  -11.0410   26.2490 C.3    51  ILE51       0.0022
     14  CG2      -20.2920  -13.4910   26.5000 C.3    51  ILE51       0.0023
     15  CD1      -18.6950  -10.4750   26.2480 C.3    51  ILE51       0.0001
     16  N        -22.8680  -13.7700   28.9170 N.am   52  GLU52      -0.1977
     17  CA       -23.1080  -14.9300   29.7460 C.3    52  GLU52       0.1602
     18  C        -22.4370  -16.1040   29.0730 C.2    52  GLU52       0.2287
     19  O        -22.8840  -16.5920   28.0510 O.2    52  GLU52      -0.2864
     20  CB       -24.6000  -15.1270   30.0380 C.3    52  GLU52       0.0415
     21  CG       -24.9300  -14.7830   31.5280 C.3    52  GLU52       0.1163
     22  CD       -26.0710  -13.7410   31.7010 C.2    52  GLU52       0.3649
     23  OE1      -27.2650  -14.1390   31.7380 O.co2  52  GLU52      -0.2457
     24  OE2      -25.7610  -12.5260   31.8370 O.co2  52  GLU52      -0.2457
     25  N        -21.8240  -19.6580   28.5650 N.3    54  LYS54      -0.1245
     26  CA       -22.5830  -20.8700   28.8220 C.3    54  LYS54       0.1561
     27  C        -21.6980  -22.0500   29.1850 C.2    54  LYS54       0.2260
     28  O        -20.6680  -22.2240   28.5780 O.2    54  LYS54      -0.2867
     29  CB       -23.4390  -21.2130   27.5890 C.3    54  LYS54       0.0271
     30  CG       -24.4080  -20.1030   27.1660 C.3    54  LYS54       0.0035
     31  CD       -25.2420  -19.6660   28.3440 C.3    54  LYS54       0.0206
     32  CE       -26.3880  -18.7770   27.9110 C.3    54  LYS54       0.1093
     33  NZ       -27.1230  -18.5210   29.1770 N.3    54  LYS54      -0.1314
     34  N        -19.0070  -24.2360   26.6700 N.3    57  TRP57      -0.1227
     35  CA       -18.7330  -23.5560   25.4000 C.3    57  TRP57       0.1737
     36  C        -17.3520  -23.9210   24.8690 C.2    57  TRP57       0.2595
     37  O        -16.4010  -23.9310   25.6160 O.2    57  TRP57      -0.2718
     38  CB       -18.8530  -22.0410   25.5560 C.3    57  TRP57       0.0564
     39  CG       -20.1820  -21.4750   25.1760 C.ar   57  TRP57       0.0003
     40  CD1      -21.3080  -22.1790   24.8390 C.ar   57  TRP57       0.0946
     41  CD2      -20.5520  -20.0890   25.1410 C.ar   57  TRP57       0.0152
     42  NE1      -22.3260  -21.3230   24.5720 N.ar   57  TRP57      -0.2442
     43  CE2      -21.8910  -20.0320   24.7440 C.ar   57  TRP57       0.0810
     44  CE3      -19.8750  -18.8890   25.4110 C.ar   57  TRP57       0.0012
     45  CZ2      -22.5850  -18.8220   24.6170 C.ar   57  TRP57       0.0191
     46  CZ3      -20.5530  -17.6840   25.2750 C.ar   57  TRP57       0.0001
     47  CH2      -21.9030  -17.6630   24.8770 C.ar   57  TRP57       0.0015
     48  N        -17.2470  -24.2160   23.5760 N.am   58  LYS58      -0.1966
     49  CA       -15.9700  -24.5870   22.9720 C.3    58  LYS58       0.1728
     50  C        -15.2620  -23.3710   22.4460 C.2    58  LYS58       0.2616
     51  O        -15.8980  -22.3970   22.0540 O.2    58  LYS58      -0.2715
     52  CB       -16.1430  -25.6320   21.8650 C.3    58  LYS58       0.0311
     53  CG       -16.8970  -26.8650   22.3340 C.3    58  LYS58       0.0038
     54  CD       -16.7250  -28.0630   21.4250 C.3    58  LYS58       0.0206
     55  CE       -17.5020  -29.2440   21.9660 C.3    58  LYS58       0.1093
     56  NZ       -17.4740  -30.4320   21.0070 N.3    58  LYS58      -0.1314
     57  N        -13.9310  -23.4400   22.4320 N.am   59  GLU59      -0.1963
     58  CA       -13.0870  -22.4440   21.7830 C.3    59  GLU59       0.1733
     59  C        -13.5960  -22.1360   20.3810 C.2    59  GLU59       0.2617
     60  O        -13.8590  -23.0710   19.6050 O.2    59  GLU59      -0.2715
     61  CB       -11.6600  -22.9660   21.6830 C.3    59  GLU59       0.0429
     62  CG       -10.6930  -21.8620   21.3520 C.3    59  GLU59       0.1163
     63  CD        -9.2540  -22.2120   21.6010 C.2    59  GLU59       0.3649
     64  OE1       -8.6880  -23.0140   20.8310 O.co2  59  GLU59      -0.2457
     65  OE2       -8.6660  -21.6450   22.5350 O.co2  59  GLU59      -0.2457
     66  N        -13.7260  -20.8360   20.0750 N.am   60  GLY60      -0.1940
     67  CA       -14.2000  -20.3510   18.7730 C.3    60  GLY60       0.2014
     68  C        -15.6660  -19.9380   18.7340 C.2    60  GLY60       0.2640
     69  O        -16.1620  -19.4470   17.7170 O.2    60  GLY60      -0.2714
     70  N        -16.3840  -20.1750   19.8200 N.am   61  THR61      -0.1936
     71  CA       -17.7410  -19.7070   19.9490 C.3    61  THR61       0.2028
     72  C        -17.6730  -18.2190   19.7260 C.2    61  THR61       0.2642
     73  O        -16.7740  -17.5760   20.2440 O.2    61  THR61      -0.2714
     74  CB       -18.2610  -20.0140   21.3640 C.3    61  THR61       0.1808
     75  OG1      -18.3680  -21.4250   21.5170 O.3    61  THR61      -0.2208
     76  CG2      -19.6350  -19.3480   21.6500 C.3    61  THR61       0.0379
     77  N        -18.6200  -17.6800   18.9570 N.am   62  LYS62      -0.1963
     78  CA       -18.6730  -16.2530   18.6000 C.3    62  LYS62       0.1728
     79  C        -19.8440  -15.6440   19.3040 C.2    62  LYS62       0.2616
     80  O        -20.9150  -16.2320   19.3080 O.2    62  LYS62      -0.2715
     81  CB       -18.8880  -16.0970   17.0990 C.3    62  LYS62       0.0311
     82  CG       -17.6190  -16.2300   16.2800 C.3    62  LYS62       0.0038
     83  CD       -17.9030  -16.1830   14.7670 C.3    62  LYS62       0.0206
     84  CE       -16.5990  -15.8520   14.0010 C.3    62  LYS62       0.1093
     85  NZ       -16.4100  -16.5190   12.6500 N.3    62  LYS62      -0.1314
     86  N        -19.6560  -14.4740   19.8940 N.am   63  ILE63      -0.1963
     87  CA       -20.7300  -13.7580   20.5520 C.3    63  ILE63       0.1727
     88  C        -20.7160  -12.3760   19.9050 C.2    63  ILE63       0.2617
     89  O        -19.8070  -11.5710   20.1440 O.2    63  ILE63      -0.2715
     90  CB       -20.5360  -13.6430   22.1290 C.3    63  ILE63       0.0290
     91  CG1      -20.3600  -14.9940   22.8320 C.3    63  ILE63       0.0022
     92  CG2      -21.6920  -12.9570   22.7790 C.3    63  ILE63       0.0023
     93  CD1      -18.8860  -15.4740   22.9040 C.3    63  ILE63       0.0001
     94  N        -21.7270  -12.0990   19.0820 N.am   64  THR64      -0.1937
     95  CA       -21.7650  -10.8830   18.2820 C.3    64  THR64       0.2028
     96  C        -22.7350   -9.8540   18.8570 C.2    64  THR64       0.2642
     97  O        -23.9060  -10.1530   19.0750 O.2    64  THR64      -0.2714
     98  CB       -22.1240  -11.2310   16.8190 C.3    64  THR64       0.1808
     99  OG1      -21.1010  -12.0920   16.2880 O.3    64  THR64      -0.2208
    100  CG2      -22.2940   -9.9560   15.9330 C.3    64  THR64       0.0379
    101  N        -22.2300   -8.6500   19.1260 N.am   65  PHE65      -0.1960
    102  CA       -23.0890   -7.5130   19.5130 C.3    65  PHE65       0.1756
    103  C        -23.1780   -6.5490   18.3180 C.2    65  PHE65       0.2461
    104  O        -22.2800   -5.7280   18.1210 O.2    65  PHE65      -0.2730
    105  CB       -22.5380   -6.7540   20.7340 C.3    65  PHE65       0.0574
    106  CG       -22.5660   -7.5330   22.0360 C.ar   65  PHE65      -0.0200
    107  CD1      -21.5940   -8.4780   22.3250 C.ar   65  PHE65      -0.0042
    108  CD2      -23.5220   -7.2580   22.9990 C.ar   65  PHE65      -0.0042
    109  CE1      -21.6110   -9.1760   23.5380 C.ar   65  PHE65      -0.0003
    110  CE2      -23.5470   -7.9370   24.1980 C.ar   65  PHE65      -0.0003
    111  CZ       -22.5930   -8.9010   24.4750 C.ar   65  PHE65      -0.0000
    112  N        -24.2700   -6.6330   17.5400 N.am   66  PRO66      -0.2727
    113  CA       -24.4270   -5.9190   16.2660 C.3    66  PRO66       0.1402
    114  C        -24.3370   -4.4210   16.4030 C.2    66  PRO66       0.2269
    115  O        -24.8640   -3.8410   17.3500 O.2    66  PRO66      -0.2865
    116  CB       -25.8510   -6.3090   15.8220 C.3    66  PRO66       0.0296
    117  CG       -26.5420   -6.6880   17.1200 C.3    66  PRO66       0.0237
    118  CD       -25.4720   -7.4190   17.8580 C.3    66  PRO66       0.0939
    119  N        -22.1250  -28.3770   25.6110 N.3   150  PRO150     -0.2102
    120  CA       -22.6650  -27.0150   25.5920 C.3   150  PRO150      0.1504
    121  C        -24.1120  -26.8880   25.0820 C.2   150  PRO150      0.2575
    122  O        -24.8560  -26.0060   25.5490 O.2   150  PRO150     -0.2718
    123  CB       -21.7140  -26.2840   24.6420 C.3   150  PRO150      0.0282
    124  CG       -21.2620  -27.2950   23.7350 C.3   150  PRO150      0.0208
    125  CD       -21.0710  -28.5260   24.6010 C.3   150  PRO150      0.0893
    126  N        -24.4890  -27.7360   24.1240 N.am  151  LYS151     -0.1980
    127  CA       -25.8660  -27.7640   23.6050 C.3   151  LYS151      0.1596
    128  C        -26.7800  -28.4620   24.5960 C.2   151  LYS151      0.2287
    129  O        -27.9590  -28.0950   24.6760 O.2   151  LYS151     -0.2864
    130  CB       -25.9570  -28.4430   22.2290 C.3   151  LYS151      0.0298
    131  CG       -25.1830  -27.7020   21.1270 C.3   151  LYS151      0.0038
    132  CD       -25.1660  -28.4830   19.7900 C.3   151  LYS151      0.0206
    133  CE       -24.8370  -29.9640   19.9760 C.3   151  LYS151      0.1093
    134  NZ       -24.4850  -30.5990   18.6680 N.3   151  LYS151     -0.1314
@<TRIPOS>BOND
     1    85    84    1
     2    84    83    1
     3    83    82    1
     4   116   113    1
     5   116   117    1
     6   100    98    1
     7   113   114    1
     8   113   112    1
     9    82    81    1
    10    99    98    1
    11   114   115    2
    12    98    95    1
    13    81    78    1
    14   117   118    1
    15   112   118    1
    16   112   103   am
    17    69    68    2
    18   104   103    2
    19    95    96    1
    20    95    94    1
    21   103   102    1
    22    78    77    1
    23    78    79    1
    24   134   133    1
    25    68    67    1
    26    68    70   am
    27    67    66    1
    28    96    97    2
    29    96   101   am
    30    77    72   am
    31    94    88   am
    32   101   102    1
    33    79    80    2
    34    79    86   am
    35   102   105    1
    36    60    59    2
    37    72    71    1
    38    72    73    2
    39   132   133    1
    40   132   131    1
    41    70    71    1
    42    86    87    1
    43    88    89    2
    44    88    87    1
    45    71    74    1
    46    66    59   am
    47    59    58    1
    48    87    90    1
    49   105   106    1
    50    64    63   ar
    51    56    55    1
    52   131   130    1
    53    62    63    1
    54    62    61    1
    55    74    75    1
    56    74    76    1
    57    54    55    1
    58    54    53    1
    59    63    65   ar
    60    61    58    1
    61    58    57    1
    62    52    53    1
    63    52    49    1
    64   106   107   ar
    65   106   108   ar
    66    51    50    2
    67    90    92    1
    68    90    91    1
    69   130   127    1
    70   107   109   ar
    71    57    50   am
    72    50    49    1
    73    91    93    1
    74    49    48    1
    75   108   110   ar
    76   109   111   ar
    77    48    36   am
    78   127   126    1
    79   127   128    1
    80   124   125    1
    81   124   123    1
    82   126   121   am
    83   110   111   ar
    84    42    43   ar
    85    42    40   ar
    86   128   129    2
    87   125   119    1
    88    45    43   ar
    89    45    47   ar
    90   123   120    1
    91    43    41   ar
    92    40    39   ar
    93    36    35    1
    94    36    37    2
    95    47    46   ar
    96   121   122    2
    97   121   120    1
    98    41    39   ar
    99    41    44   ar
   100    39    38    1
   101    46    44   ar
   102    35    38    1
   103    35    34    1
   104   120   119    1
   105    15    13    1
   106    13    12    1
   107    14    12    1
   108    30    29    1
   109    30    31    1
   110    12     9    1
   111    29    26    1
   112     4     3    2
   113    32    31    1
   114    32    33    1
   115     9     8    1
   116     9    10    1
   117    19    18    2
   118     1     2    1
   119     3     8   am
   120     3     2    1
   121    25    26    1
   122    28    27    2
   123    26    27    1
   124    16    10   am
   125    16    17    1
   126    10    11    2
   127    18    17    1
   128     2     5    1
   129    17    20    1
   130    20    21    1
   131     5     6    1
   132     5     7    1
   133    21    22    1
   134    22    23   ar
   135    22    24   ar
