@<TRIPOS>MOLECULE
tmp/3agzA00.pdb
 134 129 0 0 0
SMALL
GASTEIGER

@<TRIPOS>ATOM
      1  N        -15.4570   -5.9850   14.1120 N.3     9  VAL9       -0.1245
      2  CA       -14.2180   -5.9530   14.9130 C.3     9  VAL9        0.1561
      3  C        -14.1530   -7.2180   15.7540 C.2     9  VAL9        0.2260
      4  O        -15.1420   -7.5790   16.3870 O.2     9  VAL9       -0.2867
      5  CB       -14.1220   -4.7360   15.8860 C.3     9  VAL9        0.0252
      6  CG1      -12.7370   -4.6940   16.5460 C.3     9  VAL9        0.0019
      7  CG2      -14.3810   -3.4390   15.1860 C.3     9  VAL9        0.0019
      8  N        -12.5020   -9.5520   19.0110 N.3    11  HIS11      -0.1241
      9  CA       -11.8740   -9.3920   20.2870 C.3    11  HIS11       0.1621
     10  C        -11.9110  -10.7370   20.9550 C.2    11  HIS11       0.2264
     11  O        -12.9410  -11.3900   20.9600 O.2    11  HIS11      -0.2867
     12  CB       -12.6290   -8.3470   21.1050 C.3    11  HIS11       0.0745
     13  CG       -11.9170   -7.9450   22.3550 C.ar   11  HIS11       0.0817
     14  ND1      -10.8540   -7.0600   22.3580 N.ar   11  HIS11      -0.2268
     15  CD2      -12.0830   -8.3350   23.6430 C.ar   11  HIS11       0.1154
     16  CE1      -10.4050   -6.9180   23.5950 C.ar   11  HIS11       0.1986
     17  NE2      -11.1310   -7.6820   24.3950 N.ar   11  HIS11      -0.2212
     18  N        -11.9410  -13.4590   23.9920 N.3    13  LEU13      -0.1231
     19  CA       -12.5240  -13.5540   25.2910 C.3    13  LEU13       0.1693
     20  C        -11.9170  -14.7990   25.9140 C.2    13  LEU13       0.2591
     21  O        -12.2790  -15.9380   25.5830 O.2    13  LEU13      -0.2718
     22  CB       -14.0470  -13.6550   25.1820 C.3    13  LEU13       0.0284
     23  CG       -14.8460  -13.7700   26.4870 C.3    13  LEU13       0.0019
     24  CD1      -14.6280  -12.5630   27.4220 C.3    13  LEU13       0.0001
     25  CD2      -16.3050  -13.9670   26.1740 C.3    13  LEU13       0.0001
     26  N        -10.9580  -14.5550   26.7970 N.am   14  ARG14      -0.1980
     27  CA       -10.1620  -15.6080   27.3940 C.3    14  ARG14       0.1597
     28  C        -10.9030  -16.0570   28.6370 C.2    14  ARG14       0.2287
     29  O        -11.3520  -15.2200   29.4070 O.2    14  ARG14      -0.2864
     30  CB        -8.7180  -15.1230   27.6850 C.3    14  ARG14       0.0334
     31  CG        -7.8250  -15.1750   26.4560 C.3    14  ARG14       0.0492
     32  CD        -6.4480  -14.4760   26.6140 C.3    14  ARG14       0.2205
     33  NE        -5.5310  -15.2120   27.5230 N.pl3  14  ARG14      -0.0865
     34  CZ        -4.8730  -16.3570   27.2450 C.cat  14  ARG14       0.5346
     35  NH1       -4.9940  -16.9770   26.0520 N.pl3  14  ARG14       0.1354
     36  NH2       -4.1100  -16.9010   28.1920 N.pl3  14  ARG14       0.1354
     37  N        -19.1840  -12.2540   31.8950 N.3    26  LYS26      -0.1231
     38  CA       -18.0480  -11.3690   31.6080 C.3    26  LYS26       0.1693
     39  C        -18.5770  -10.0270   31.1230 C.2    26  LYS26       0.2592
     40  O        -19.5140   -9.9600   30.3130 O.2    26  LYS26      -0.2718
     41  CB       -17.1220  -11.9720   30.5750 C.3    26  LYS26       0.0285
     42  CG       -16.4600  -13.2510   31.0170 C.3    26  LYS26       0.0035
     43  CD       -15.0450  -13.0030   31.5710 C.3    26  LYS26       0.0206
     44  CE       -14.5050  -14.2310   32.2720 C.3    26  LYS26       0.1093
     45  NZ       -13.6490  -13.8170   33.4250 N.3    26  LYS26      -0.1314
     46  N        -18.0060   -8.9540   31.6570 N.am   27  LYS27      -0.1966
     47  CA       -18.4520   -7.5850   31.3310 C.3    27  LYS27       0.1728
     48  C        -17.3230   -6.9490   30.5190 C.2    27  LYS27       0.2616
     49  O        -16.1760   -6.8210   30.9940 O.2    27  LYS27      -0.2715
     50  CB       -18.8080   -6.7800   32.6000 C.3    27  LYS27       0.0311
     51  CG       -19.5620   -7.6190   33.6740 C.3    27  LYS27       0.0038
     52  CD       -20.2660   -6.8470   34.8180 C.3    27  LYS27       0.0206
     53  CE       -19.2830   -6.1940   35.8150 C.3    27  LYS27       0.1093
     54  NZ       -19.5400   -6.5160   37.2880 N.3    27  LYS27      -0.1314
     55  N        -17.6420   -6.6050   29.2730 N.am   28  MET28      -0.1963
     56  CA       -16.7080   -5.8780   28.4300 C.3    28  MET28       0.1736
     57  C        -17.1720   -4.4390   28.2590 C.2    28  MET28       0.2616
     58  O        -18.3100   -4.1590   27.8720 O.2    28  MET28      -0.2715
     59  CB       -16.5220   -6.5680   27.0750 C.3    28  MET28       0.0427
     60  CG       -16.2580   -8.0690   27.1610 C.3    28  MET28       0.0599
     61  SD       -14.7600   -8.5210   28.0520 S.3    28  MET28      -0.1393
     62  CE       -13.4920   -8.1720   26.8070 C.3    28  MET28       0.0692
     63  N        -16.2760   -3.5310   28.5880 N.am   29  LYS29      -0.1963
     64  CA       -16.5310   -2.1080   28.4320 C.3    29  LYS29       0.1728
     65  C        -15.9380   -1.7240   27.0850 C.2    29  LYS29       0.2616
     66  O        -14.7320   -1.9490   26.8030 O.2    29  LYS29      -0.2715
     67  CB       -15.9320   -1.2940   29.6080 C.3    29  LYS29       0.0311
     68  CG       -16.1590    0.2110   29.5460 C.3    29  LYS29       0.0038
     69  CD       -15.7220    0.9330   30.8280 C.3    29  LYS29       0.0206
     70  CE       -14.2000    0.9000   31.1190 C.3    29  LYS29       0.1093
     71  NZ       -13.3280    1.3040   29.9620 N.3    29  LYS29      -0.1314
     72  N        -16.8220   -1.1950   26.2410 N.am   30  ILE30      -0.1963
     73  CA       -16.4310   -0.6850   24.9410 C.3    30  ILE30       0.1727
     74  C        -16.6100    0.8370   24.9080 C.2    30  ILE30       0.2617
     75  O        -17.6920    1.3680   25.2420 O.2    30  ILE30      -0.2715
     76  CB       -17.1990   -1.3890   23.7640 C.3    30  ILE30       0.0290
     77  CG1      -16.6540   -0.8970   22.4070 C.3    30  ILE30       0.0022
     78  CG2      -18.7010   -1.1930   23.8920 C.3    30  ILE30       0.0023
     79  CD1      -17.1940   -1.6020   21.1690 C.3    30  ILE30       0.0001
     80  N        -15.5420    1.5250   24.5320 N.am   31  SER31      -0.1936
     81  CA       -15.6040    2.9630   24.2930 C.3    31  SER31       0.2055
     82  C        -15.6920    3.1780   22.8000 C.2    31  SER31       0.2643
     83  O        -14.8220    2.7310   22.0410 O.2    31  SER31      -0.2714
     84  CB       -14.3600    3.6500   24.8350 C.3    31  SER31       0.2130
     85  OG       -14.1750    3.3050   26.1940 O.3    31  SER31      -0.2179
     86  N        -16.7610    3.8370   22.3800 N.am   32  HIS32      -0.1973
     87  CA       -17.0360    4.0190   20.9600 C.3    32  HIS32       0.1656
     88  C        -17.6080    5.4130   20.6690 C.2    32  HIS32       0.2291
     89  O        -18.2060    6.0660   21.5550 O.2    32  HIS32      -0.2864
     90  CB       -17.9530    2.8940   20.3920 C.3    32  HIS32       0.0771
     91  CG       -19.2500    2.6830   21.1340 C.ar   32  HIS32       0.0820
     92  ND1      -20.0800    1.6010   20.8760 N.ar   32  HIS32      -0.2267
     93  CD2      -19.8560    3.3870   22.1260 C.ar   32  HIS32       0.1154
     94  CE1      -21.1370    1.6480   21.6760 C.ar   32  HIS32       0.1986
     95  NE2      -21.0280    2.7210   22.4450 N.ar   32  HIS32      -0.2212
     96  N        -21.3390   -1.0350   28.6500 N.3    48  ILE48      -0.1245
     97  CA       -21.0180   -2.3750   29.1470 C.3    48  ILE48       0.1561
     98  C        -21.6860   -3.4180   28.2500 C.2    48  ILE48       0.2260
     99  O        -22.9030   -3.3370   27.9900 O.2    48  ILE48      -0.2867
    100  CB       -21.4830   -2.6210   30.6380 C.3    48  ILE48       0.0252
    101  CG1      -20.8330   -1.6210   31.6260 C.3    48  ILE48       0.0019
    102  CG2      -21.2340   -4.1280   31.0750 C.3    48  ILE48       0.0019
    103  CD1      -19.3100   -1.6900   31.7440 C.3    48  ILE48       0.0001
    104  N        -19.8250   -0.9900   17.0980 N.3    69  GLY69      -0.1210
    105  CA       -18.6510   -0.2080   16.7030 C.3    69  GLY69       0.1956
    106  C        -18.8410    1.3140   16.6300 C.2    69  GLY69       0.2611
    107  O        -19.9250    1.8350   16.8830 O.2    69  GLY69      -0.2717
    108  N        -17.7530    2.0120   16.2920 N.am   70  ASP70      -0.1973
    109  CA       -17.7040    3.4760   16.0730 C.3    70  ASP70       0.1709
    110  C        -18.7460    3.9450   15.0390 C.2    70  ASP70       0.2293
    111  O        -18.8370    3.3910   13.9170 O.2    70  ASP70      -0.2864
    112  CB       -16.2920    3.8910   15.5690 C.3    70  ASP70       0.1436
    113  CG       -15.3470    4.3470   16.6900 C.2    70  ASP70       0.3671
    114  OD1      -15.7660    4.4710   17.8640 O.co2  70  ASP70      -0.2456
    115  OD2      -14.1690    4.6170   16.3870 O.co2  70  ASP70      -0.2456
    116  N        -19.3820   -6.0330   16.8020 N.3    80  ILE80      -0.1245
    117  CA       -18.2950   -6.3990   17.7060 C.3    80  ILE80       0.1561
    118  C        -18.4680   -7.8790   18.0240 C.2    80  ILE80       0.2260
    119  O        -19.4530   -8.2580   18.6700 O.2    80  ILE80      -0.2867
    120  CB       -18.2940   -5.5920   19.0400 C.3    80  ILE80       0.0252
    121  CG1      -18.2830   -4.0860   18.8020 C.3    80  ILE80       0.0019
    122  CG2      -17.0750   -5.9490   19.8740 C.3    80  ILE80       0.0019
    123  CD1      -17.0410   -3.5730   18.0440 C.3    80  ILE80       0.0001
    124  N        -17.0550  -11.2380   19.7680 N.3    82  PHE82      -0.1241
    125  CA       -16.1720  -11.7720   20.7770 C.3    82  PHE82       0.1605
    126  C        -15.9720  -13.2190   20.4390 C.2    82  PHE82       0.2264
    127  O        -16.9480  -13.9140   20.0990 O.2    82  PHE82      -0.2867
    128  CB       -16.7370  -11.5890   22.1740 C.3    82  PHE82       0.0534
    129  CG       -16.7380  -10.1460   22.6230 C.ar   82  PHE82      -0.0203
    130  CD1      -17.8590   -9.3210   22.3990 C.ar   82  PHE82      -0.0042
    131  CD2      -15.6100   -9.5930   23.2380 C.ar   82  PHE82      -0.0042
    132  CE1      -17.8470   -7.9850   22.7960 C.ar   82  PHE82      -0.0003
    133  CE2      -15.5930   -8.2570   23.6300 C.ar   82  PHE82      -0.0003
    134  CZ       -16.7290   -7.4490   23.4180 C.ar   82  PHE82      -0.0000
@<TRIPOS>BOND
     1   111   110    2
     2     1     2    1
     3     2     3    1
     4     2     5    1
     5   110   109    1
     6     7     5    1
     7   112   109    1
     8   112   113    1
     9     3     4    2
    10     5     6    1
    11   109   108    1
    12   108   106   am
    13   115   113   ar
    14   106   105    1
    15   106   107    2
    16   113   114   ar
    17   105   104    1
    18   116   117    1
    19   117   118    1
    20   117   120    1
    21   118   119    2
    22   123   121    1
    23   121   120    1
    24     8     9    1
    25   120   122    1
    26   124   125    1
    27   127   126    2
    28     9    10    1
    29     9    12    1
    30    90    87    1
    31    90    91    1
    32   126   125    1
    33    88    87    1
    34    88    89    2
    35   125   128    1
    36    92    91   ar
    37    92    94   ar
    38    10    11    2
    39    87    86    1
    40    12    13    1
    41    91    93   ar
    42    79    77    1
    43    94    95   ar
    44    83    82    2
    45    93    95   ar
    46   128   129    1
    47    13    14   ar
    48    13    15   ar
    49    14    16   ar
    50    86    82   am
    51   130   129   ar
    52   130   132   ar
    53    77    76    1
    54   129   131   ar
    55   132   134   ar
    56    82    81    1
    57   131   133   ar
    58   134   133   ar
    59    16    17   ar
    60    15    17   ar
    61    76    78    1
    62    76    73    1
    63    18    19    1
    64    81    80    1
    65    81    84    1
    66    80    74   am
    67    84    85    1
    68    74    73    1
    69    74    75    2
    70    73    72    1
    71    22    19    1
    72    22    23    1
    73    19    20    1
    74    21    20    2
    75    20    26   am
    76    35    34    1
    77    25    23    1
    78    72    65   am
    79    31    32    1
    80    31    30    1
    81    23    24    1
    82    32    33    1
    83    26    27    1
    84    66    65    2
    85    62    61    1
    86    59    60    1
    87    59    56    1
    88    65    64    1
    89    60    61    1
    90    34    33    2
    91    34    36    1
    92    27    30    1
    93    27    28    1
    94    58    57    2
    95    99    98    2
    96    98    97    1
    97    57    56    1
    98    57    63   am
    99    56    55    1
   100    64    63    1
   101    64    67    1
   102    28    29    2
   103    96    97    1
   104    97   100    1
   105    55    48   am
   106    68    67    1
   107    68    69    1
   108    71    70    1
   109    40    39    2
   110    48    49    2
   111    48    47    1
   112    41    42    1
   113    41    38    1
   114   100   102    1
   115   100   101    1
   116    69    70    1
   117    42    43    1
   118    39    38    1
   119    39    46   am
   120    47    46    1
   121    47    50    1
   122    43    44    1
   123    38    37    1
   124   101   103    1
   125    44    45    1
   126    50    51    1
   127    51    52    1
   128    52    53    1
   129    53    54    1
