@<TRIPOS>MOLECULE
tmp/3ah1A01.pdb
 91 87 0 0 0
SMALL
GASTEIGER

@<TRIPOS>ATOM
      1  N         32.5990   -0.9320   14.7090 N.3     7  ARG7       -0.1231
      2  CA        32.3910   -2.3690   14.5510 C.3     7  ARG7        0.1694
      3  C         30.9590   -2.6540   14.1530 C.2     7  ARG7        0.2592
      4  O         30.0330   -1.9600   14.5630 O.2     7  ARG7       -0.2718
      5  CB        32.7070   -3.1250   15.8460 C.3     7  ARG7        0.0321
      6  CG        34.1780   -3.1770   16.2130 C.3     7  ARG7        0.0489
      7  CD        34.3670   -3.5830   17.6790 C.3     7  ARG7        0.2205
      8  NE        33.7420   -4.8790   17.9440 N.pl3   7  ARG7       -0.0865
      9  CZ        33.3200   -5.3110   19.1380 C.cat   7  ARG7        0.5346
     10  NH1       33.4540   -4.5670   20.2360 N.pl3   7  ARG7        0.1354
     11  NH2       32.7480   -6.5100   19.2290 N.pl3   7  ARG7        0.1354
     12  N         30.8020   -3.6990   13.3520 N.am    8  ASN8       -0.1960
     13  CA        29.5090   -4.1660   12.8900 C.3     8  ASN8        0.1819
     14  C         28.6440   -4.6440   14.0530 C.2     8  ASN8        0.2621
     15  O         29.1500   -5.1500   15.0470 O.2     8  ASN8       -0.2715
     16  CB        29.7230   -5.3150   11.9030 C.3     8  ASN8        0.1195
     17  CG        28.5090   -5.6110   11.0650 C.2     8  ASN8        0.2630
     18  OD1       27.6490   -4.7600   10.8500 O.2     8  ASN8       -0.2716
     19  ND2       28.4620   -6.8210   10.5260 N.am    8  ASN8       -0.0877
     20  N         27.3360   -4.4640   13.9130 N.am    9  ASN9       -0.1958
     21  CA        26.3680   -4.8250   14.9420 C.3     9  ASN9        0.1819
     22  C         26.4140   -3.9920   16.2260 C.2     9  ASN9        0.2621
     23  O         25.6270   -4.2390   17.1370 O.2     9  ASN9       -0.2715
     24  CB        26.4580   -6.3240   15.3140 C.3     9  ASN9        0.1195
     25  CG        25.1670   -6.8420   15.8750 C.2     9  ASN9        0.2630
     26  OD1       24.1200   -6.2610   15.6320 O.2     9  ASN9       -0.2716
     27  ND2       25.2230   -7.9270   16.6370 N.am    9  ASN9       -0.0877
     28  N         27.3090   -3.0080   16.3130 N.am   10  GLU10      -0.1977
     29  CA        27.4150   -2.2210   17.5330 C.3    10  GLU10       0.1602
     30  C         26.4450   -1.0460   17.5060 C.2    10  GLU10       0.2287
     31  O         25.9590   -0.6480   16.4430 O.2    10  GLU10      -0.2864
     32  CB        28.8510   -1.7600   17.7490 C.3    10  GLU10       0.0415
     33  CG        29.8250   -2.9110   17.9980 C.3    10  GLU10       0.1163
     34  CD        29.5640   -3.6540   19.2840 C.2    10  GLU10       0.3649
     35  OE1       29.4500   -3.0040   20.3320 O.co2  10  GLU10      -0.2457
     36  OE2       29.4810   -4.8930   19.2640 O.co2  10  GLU10      -0.2457
     37  N         31.3390  -10.5410   24.1090 N.3   229  ASN229     -0.1240
     38  CA        30.7770   -9.3880   23.4510 C.3   229  ASN229      0.1653
     39  C         29.4210   -9.1240   24.0500 C.2   229  ASN229      0.2266
     40  O         28.5600  -10.0060   24.0330 O.2   229  ASN229     -0.2867
     41  CB        30.6220   -9.6240   21.9560 C.3   229  ASN229      0.1155
     42  CG        31.9480   -9.8160   21.2510 C.2   229  ASN229      0.2627
     43  OD1       32.1620  -10.8210   20.5670 O.2   229  ASN229     -0.2716
     44  ND2       32.8530   -8.8620   21.4260 N.am  229  ASN229     -0.0877
     45  N         26.0660   -7.0190   23.7300 N.3   231  ASN231     -0.1240
     46  CA        25.3230   -6.2440   22.7340 C.3   231  ASN231      0.1653
     47  C         23.8520   -6.2550   23.0470 C.2   231  ASN231      0.2266
     48  O         23.3660   -7.1270   23.7680 O.2   231  ASN231     -0.2867
     49  CB        25.5350   -6.8150   21.3260 C.3   231  ASN231      0.1155
     50  CG        25.5350   -5.7240   20.2250 C.2   231  ASN231      0.2627
     51  OD1       24.9540   -4.6290   20.3740 O.2   231  ASN231     -0.2716
     52  ND2       26.2050   -6.0310   19.1130 N.am  231  ASN231     -0.0877
     53  N         27.8260  -12.8120   23.7170 N.3   243  TYR243     -0.1241
     54  CA        28.4860  -13.8140   22.8760 C.3   243  TYR243      0.1605
     55  C         29.8350  -14.1490   23.4700 C.2   243  TYR243      0.2264
     56  O         30.5430  -13.2590   23.9070 O.2   243  TYR243     -0.2867
     57  CB        28.6950  -13.2910   21.4470 C.3   243  TYR243      0.0534
     58  CG        27.4120  -12.9590   20.7350 C.ar  243  TYR243     -0.0201
     59  CD1       26.8000  -13.8920   19.9160 C.ar  243  TYR243     -0.0009
     60  CD2       26.8030  -11.7130   20.8970 C.ar  243  TYR243     -0.0009
     61  CE1       25.6100  -13.6070   19.2690 C.ar  243  TYR243      0.0417
     62  CE2       25.6090  -11.4080   20.2540 C.ar  243  TYR243      0.0417
     63  CZ        25.0140  -12.3690   19.4410 C.ar  243  TYR243      0.1957
     64  OH        23.8390  -12.0890   18.7910 O.3   243  TYR243     -0.2866
     65  N         31.6820  -17.0650   18.3910 N.3   248  THR248     -0.1203
     66  CA        30.7370  -15.9440   18.4040 C.3   248  THR248      0.1994
     67  C         29.3550  -16.2900   17.8410 C.2   248  THR248      0.2617
     68  O         28.5090  -15.4080   17.6750 O.2   248  THR248     -0.2717
     69  CB        31.3060  -14.6960   17.6580 C.3   248  THR248      0.1784
     70  OG1       31.6270  -15.0340   16.3060 O.3   248  THR248     -0.2211
     71  CG2       32.5550  -14.1730   18.3550 C.3   248  THR248      0.0376
     72  N         29.1380  -17.5640   17.5290 N.am  249  ASN249     -0.1974
     73  CA        27.7940  -18.0920   17.3200 C.3   249  ASN249      0.1688
     74  C         27.2050  -18.6260   18.6310 C.2   249  ASN249      0.2292
     75  O         26.0370  -19.0170   18.6550 O.2   249  ASN249     -0.2864
     76  CB        27.8040  -19.2200   16.2740 C.3   249  ASN249      0.1181
     77  CG        28.4270  -18.7990   14.9530 C.2   249  ASN249      0.2629
     78  OD1       29.4820  -19.3170   14.5550 O.2   249  ASN249     -0.2716
     79  ND2       27.7810  -17.8580   14.2620 N.am  249  ASN249     -0.0877
     80  N         23.4110  -19.6040   19.4410 N.3   270  TYR270     -0.1241
     81  CA        22.4720  -18.4870   19.3970 C.3   270  TYR270      0.1605
     82  C         21.1530  -18.8670   18.7240 C.2   270  TYR270      0.2264
     83  O         21.1590  -19.4910   17.6730 O.2   270  TYR270     -0.2867
     84  CB        23.0890  -17.2990   18.6510 C.3   270  TYR270      0.0534
     85  CG        22.1130  -16.1680   18.4220 C.ar  270  TYR270     -0.0201
     86  CD1       21.9400  -15.1730   19.3770 C.ar  270  TYR270     -0.0009
     87  CD2       21.3420  -16.1020   17.2620 C.ar  270  TYR270     -0.0009
     88  CE1       21.0340  -14.1360   19.1860 C.ar  270  TYR270      0.0417
     89  CE2       20.4310  -15.0590   17.0600 C.ar  270  TYR270      0.0417
     90  CZ        20.2840  -14.0810   18.0340 C.ar  270  TYR270      0.1957
     91  OH        19.3900  -13.0410   17.8580 O.3   270  TYR270     -0.2866
@<TRIPOS>BOND
     1    19    17   am
     2    18    17    2
     3    17    16    1
     4    16    13    1
     5    13    12    1
     6    13    14    1
     7    12     3   am
     8    20    14   am
     9    20    21    1
    10    14    15    2
    11     3     2    1
    12     3     4    2
    13    79    77   am
    14     2     1    1
    15     2     5    1
    16    78    77    2
    17    21    24    1
    18    21    22    1
    19    77    76    1
    20    24    25    1
    21    26    25    2
    22     5     6    1
    23    25    27   am
    24     6     7    1
    25    22    28   am
    26    22    23    2
    27    76    73    1
    28    70    69    1
    29    28    29    1
    30    31    30    2
    31    89    87   ar
    32    89    90   ar
    33    87    85   ar
    34    73    72    1
    35    73    74    1
    36    30    29    1
    37    72    67   am
    38    29    32    1
    39    69    71    1
    40    69    66    1
    41    83    82    2
    42    68    67    2
    43     7     8    1
    44    32    33    1
    45    67    66    1
    46    91    90    1
    47     8     9    2
    48    33    34    1
    49    90    88   ar
    50    65    66    1
    51    85    84    1
    52    85    86   ar
    53    74    75    2
    54    84    81    1
    55    82    81    1
    56    64    63    1
    57    52    50   am
    58     9    11    1
    59     9    10    1
    60    88    86   ar
    61    36    34   ar
    62    61    63   ar
    63    61    59   ar
    64    34    35   ar
    65    81    80    1
    66    63    62   ar
    67    59    58   ar
    68    50    51    2
    69    50    49    1
    70    62    60   ar
    71    43    42    2
    72    58    60   ar
    73    58    57    1
    74    42    44   am
    75    42    41    1
    76    49    46    1
    77    57    54    1
    78    41    38    1
    79    46    47    1
    80    46    45    1
    81    54    55    1
    82    54    53    1
    83    47    48    2
    84    38    39    1
    85    38    37    1
    86    55    56    2
    87    40    39    2
