@<TRIPOS>MOLECULE
tmp/3ah5A02.pdb
 100 97 0 0 0
SMALL
GASTEIGER

@<TRIPOS>ATOM
      1  N         42.5210   15.8590   30.5360 N.3    21  CYS21      -0.1221
      2  CA        43.5210   15.7620   31.5950 C.3    21  CYS21       0.1808
      3  C         44.8340   15.1760   31.0890 C.2    21  CYS21       0.2601
      4  O         45.9140   15.6550   31.4490 O.2    21  CYS21      -0.2717
      5  CB        42.9900   14.9080   32.7500 C.3    21  CYS21       0.0970
      6  SG        41.5780   15.6160   33.6400 S.3    21  CYS21      -0.0800
      7  N         44.7360   14.1390   30.2600 N.am   22  TRP22      -0.1976
      8  CA        45.9170   13.4790   29.7050 C.3    22  TRP22       0.1640
      9  C         46.1920   13.9050   28.2650 C.2    22  TRP22       0.2290
     10  O         47.2160   13.5340   27.6940 O.2    22  TRP22      -0.2864
     11  CB        45.7450   11.9540   29.7520 C.3    22  TRP22       0.0576
     12  CG        45.7710   11.3780   31.1370 C.ar   22  TRP22       0.0006
     13  CD1       46.8620   10.9120   31.8140 C.ar   22  TRP22       0.0946
     14  CD2       44.6610   11.2560   32.0340 C.ar   22  TRP22       0.0152
     15  NE1       46.5010   10.5090   33.0790 N.ar   22  TRP22      -0.2442
     16  CE2       45.1560   10.7100   33.2410 C.ar   22  TRP22       0.0810
     17  CE3       43.2960   11.5600   31.9360 C.ar   22  TRP22       0.0012
     18  CZ2       44.3350   10.4610   34.3420 C.ar   22  TRP22       0.0191
     19  CZ3       42.4790   11.3130   33.0310 C.ar   22  TRP22       0.0001
     20  CH2       43.0040   10.7680   34.2200 C.ar   22  TRP22       0.0015
     21  N         38.2650    6.9500   42.3870 N.3    46  PHE46      -0.1227
     22  CA        38.0380    8.0490   43.3120 C.3    46  PHE46       0.1736
     23  C         38.8190    9.3340   43.0510 C.2    46  PHE46       0.2595
     24  O         38.2300   10.4200   43.0190 O.2    46  PHE46      -0.2718
     25  CB        38.2770    7.6060   44.7530 C.3    46  PHE46       0.0547
     26  CG        37.8500    8.6280   45.7600 C.ar   46  PHE46      -0.0202
     27  CD1       36.5300    9.0760   45.7870 C.ar   46  PHE46      -0.0042
     28  CD2       38.7660    9.1820   46.6520 C.ar   46  PHE46      -0.0042
     29  CE1       36.1220   10.0690   46.6850 C.ar   46  PHE46      -0.0003
     30  CE2       38.3720   10.1750   47.5550 C.ar   46  PHE46      -0.0003
     31  CZ        37.0430   10.6190   47.5680 C.ar   46  PHE46      -0.0000
     32  N         40.1310    9.2320   42.8620 N.am   47  ARG47      -0.1966
     33  CA        40.9210   10.4360   42.6330 C.3    47  ARG47       0.1729
     34  C         40.4750   11.1930   41.3880 C.2    47  ARG47       0.2616
     35  O         40.7960   12.3670   41.2270 O.2    47  ARG47      -0.2715
     36  CB        42.4180   10.1030   42.5270 C.3    47  ARG47       0.0348
     37  CG        42.8310    9.3180   41.2830 C.3    47  ARG47       0.0492
     38  CD        44.3560    9.2210   41.1880 C.3    47  ARG47       0.2205
     39  NE        44.8560    7.8610   41.3800 N.pl3  47  ARG47      -0.0865
     40  CZ        44.8960    6.9340   40.4280 C.cat  47  ARG47       0.5346
     41  NH1       44.4670    7.2150   39.2060 N.pl3  47  ARG47       0.1354
     42  NH2       45.3700    5.7230   40.6970 N.pl3  47  ARG47       0.1354
     43  N         39.7260   10.5270   40.5170 N.am   48  HIS48      -0.1973
     44  CA        39.2600   11.1520   39.2830 C.3    48  HIS48       0.1656
     45  C         37.7420   11.1210   39.1030 C.2    48  HIS48       0.2291
     46  O         37.2380   11.3320   37.9970 O.2    48  HIS48      -0.2864
     47  CB        39.9290   10.4800   38.0830 C.3    48  HIS48       0.0771
     48  CG        41.4170   10.6430   38.0530 C.ar   48  HIS48       0.0820
     49  ND1       42.2820    9.5730   37.9560 N.ar   48  HIS48      -0.2267
     50  CD2       42.1940   11.7520   38.1070 C.ar   48  HIS48       0.1154
     51  CE1       43.5270   10.0160   37.9540 C.ar   48  HIS48       0.1986
     52  NE2       43.5010   11.3340   38.0460 N.ar   48  HIS48      -0.2212
     53  N         35.6720   13.2380   40.0180 N.3    50  SER50      -0.1217
     54  CA        35.1730   14.5750   39.7170 C.3    50  SER50       0.1889
     55  C         34.8540   14.7530   38.2320 C.2    50  SER50       0.2288
     56  O         34.1210   15.6720   37.8580 O.2    50  SER50      -0.2866
     57  CB        36.1880   15.6360   40.1410 C.3    50  SER50       0.2089
     58  OG        37.3450   15.5660   39.3330 O.3    50  SER50      -0.2183
     59  N         31.1460   14.9000   37.2100 N.3    53  GLU53      -0.1245
     60  CA        30.3540   16.0700   37.5880 C.3    53  GLU53       0.1567
     61  C         29.8630   16.8800   36.3980 C.2    53  GLU53       0.2260
     62  O         28.9520   17.7070   36.5220 O.2    53  GLU53      -0.2867
     63  CB        31.1740   16.9820   38.5040 C.3    53  GLU53       0.0388
     64  CG        31.4610   16.3900   39.8770 C.3    53  GLU53       0.1160
     65  CD        32.5360   17.1580   40.6140 C.2    53  GLU53       0.3649
     66  OE1       32.8160   18.3060   40.2110 O.co2  53  GLU53      -0.2457
     67  OE2       33.0940   16.6220   41.5930 O.co2  53  GLU53      -0.2457
     68  N         24.5040   18.5810   47.8020 N.3    77  ILE77      -0.1245
     69  CA        25.1420   18.8120   46.5200 C.3    77  ILE77       0.1561
     70  C         24.1650   18.3660   45.4490 C.2    77  ILE77       0.2260
     71  O         24.3010   17.3080   44.8370 O.2    77  ILE77      -0.2867
     72  CB        26.4900   18.0730   46.4090 C.3    77  ILE77       0.0252
     73  CG1       27.4910   18.7590   47.3370 C.3    77  ILE77       0.0019
     74  CG2       27.0200   18.1230   44.9650 C.3    77  ILE77       0.0019
     75  CD1       28.9210   18.3510   47.0960 C.3    77  ILE77       0.0001
     76  N         24.1990   16.1580   39.4680 N.3   163  ASN163     -0.1240
     77  CA        25.2160   15.6400   38.5580 C.3   163  ASN163      0.1653
     78  C         25.5120   14.1760   38.8750 C.2   163  ASN163      0.2266
     79  O         25.1800   13.6840   39.9570 O.2   163  ASN163     -0.2867
     80  CB        26.5080   16.4870   38.5960 C.3   163  ASN163      0.1155
     81  CG        27.3050   16.3280   39.8890 C.2   163  ASN163      0.2627
     82  OD1       27.4240   15.2320   40.4400 O.2   163  ASN163     -0.2716
     83  ND2       27.8850   17.4270   40.3570 N.am  163  ASN163     -0.0877
     84  N         28.2000   12.4230   39.7140 N.3   165  ARG165     -0.1231
     85  CA        28.9610   12.0950   40.9140 C.3   165  ARG165      0.1694
     86  C         28.0830   12.0740   42.1600 C.2   165  ARG165      0.2592
     87  O         28.0920   11.1140   42.9270 O.2   165  ARG165     -0.2718
     88  CB        30.0940   13.1020   41.1190 C.3   165  ARG165      0.0321
     89  CG        30.9910   12.7420   42.2810 C.3   165  ARG165      0.0489
     90  CD        32.2190   13.6120   42.3410 C.3   165  ARG165      0.2205
     91  NE        33.1920   13.0330   43.2550 N.pl3 165  ARG165     -0.0865
     92  CZ        34.2920   13.6490   43.6650 C.cat 165  ARG165      0.5346
     93  NH1       34.5590   14.8750   43.2400 N.pl3 165  ARG165      0.1354
     94  NH2       35.1210   13.0350   44.5010 N.pl3 165  ARG165      0.1354
     95  N         27.3220   13.1440   42.3570 N.am  166  SER166     -0.1952
     96  CA        26.4410   13.2440   43.5050 C.3   166  SER166      0.1924
     97  C         25.3130   12.2070   43.4100 C.2   166  SER166      0.2314
     98  O         24.8500   11.6880   44.4320 O.2   166  SER166     -0.2863
     99  CB        25.8740   14.6590   43.5910 C.3   166  SER166      0.2116
    100  OG        25.1190   14.8380   44.7720 O.3   166  SER166     -0.2180
@<TRIPOS>BOND
     1    10     9    2
     2     9     8    1
     3     8    11    1
     4     8     7    1
     5    11    12    1
     6     7     3   am
     7     1     2    1
     8     3     4    2
     9     3     2    1
    10    12    13   ar
    11    12    14   ar
    12     2     5    1
    13    13    15   ar
    14    17    14   ar
    15    17    19   ar
    16    14    16   ar
    17     5     6    1
    18    19    20   ar
    19    15    16   ar
    20    16    18   ar
    21    20    18   ar
    22    61    62    2
    23    61    60    1
    24    59    60    1
    25    60    63    1
    26    56    55    2
    27    51    49   ar
    28    51    52   ar
    29    49    48   ar
    30    46    45    2
    31    52    50   ar
    32    48    47    1
    33    48    50   ar
    34    47    44    1
    35    55    54    1
    36    63    64    1
    37    77    80    1
    38    77    78    1
    39    77    76    1
    40    80    81    1
    41    78    79    2
    42    45    44    1
    43    41    40    1
    44    44    43    1
    45    58    57    1
    46    84    85    1
    47    54    53    1
    48    54    57    1
    49    64    65    1
    50    81    83   am
    51    81    82    2
    52    66    65   ar
    53    40    42    1
    54    40    39    2
    55    43    34   am
    56    65    67   ar
    57    85    88    1
    58    85    86    1
    59    88    89    1
    60    38    37    1
    61    38    39    1
    62    35    34    2
    63    37    36    1
    64    34    33    1
    65    86    95   am
    66    86    87    2
    67    89    90    1
    68    90    91    1
    69    95    96    1
    70    21    22    1
    71    36    33    1
    72    33    32    1
    73    32    23   am
    74    24    23    2
    75    23    22    1
    76    93    92    1
    77    91    92    2
    78    22    25    1
    79    97    96    1
    80    97    98    2
    81    96    99    1
    82    99   100    1
    83    92    94    1
    84    25    26    1
    85    71    70    2
    86    74    72    1
    87    70    69    1
    88    26    27   ar
    89    26    28   ar
    90    27    29   ar
    91    72    69    1
    92    72    73    1
    93    69    68    1
    94    28    30   ar
    95    29    31   ar
    96    75    73    1
    97    30    31   ar
