@<TRIPOS>MOLECULE
tmp/3ah5A01.pdb
 93 88 0 0 0
SMALL
GASTEIGER

@<TRIPOS>ATOM
      1  N         18.5760   16.5680   52.5190 N.3    74  ARG74      -0.1231
      2  CA        19.8730   16.4630   53.1830 C.3    74  ARG74       0.1694
      3  C         21.0370   16.3080   52.2050 C.2    74  ARG74       0.2592
      4  O         22.1910   16.5710   52.5600 O.2    74  ARG74      -0.2718
      5  CB        19.8670   15.3150   54.1890 C.3    74  ARG74       0.0321
      6  CG        19.0280   15.6430   55.3960 C.3    74  ARG74       0.0489
      7  CD        19.5560   16.8810   56.1210 C.3    74  ARG74       0.2205
      8  NE        20.8300   16.6070   56.7890 N.pl3  74  ARG74      -0.0865
      9  CZ        20.9400   16.0110   57.9720 C.cat  74  ARG74       0.5346
     10  NH1       19.8580   15.6360   58.6300 N.pl3  74  ARG74       0.1354
     11  NH2       22.1330   15.7610   58.4840 N.pl3  74  ARG74       0.1354
     12  N         20.7430   15.8580   50.9860 N.am   75  HIS75      -0.1962
     13  CA        21.7780   15.7380   49.9750 C.3    75  HIS75       0.1787
     14  C         21.9420   17.1590   49.4640 C.2    75  HIS75       0.2620
     15  O         21.1910   17.6150   48.5980 O.2    75  HIS75      -0.2715
     16  CB        21.3330   14.7930   48.8670 C.3    75  HIS75       0.0785
     17  CG        21.3430   13.3590   49.2850 C.ar   75  HIS75       0.0821
     18  ND1       20.4090   12.8300   50.1540 N.ar   75  HIS75      -0.2267
     19  CD2       22.2310   12.3660   49.0360 C.ar   75  HIS75       0.1154
     20  CE1       20.7250   11.5760   50.4250 C.ar   75  HIS75       0.1986
     21  NE2       21.8270   11.2710   49.7620 N.ar   75  HIS75      -0.2212
     22  N         22.9230   17.8620   50.0220 N.am   76  ARG76      -0.1963
     23  CA        23.1470   19.2510   49.6900 C.3    76  ARG76       0.1729
     24  C         23.8400   19.5660   48.3810 C.2    76  ARG76       0.2616
     25  O         23.7730   20.7020   47.8930 O.2    76  ARG76      -0.2715
     26  CB        23.8380   19.9460   50.8670 C.3    76  ARG76       0.0348
     27  CG        24.6170   19.0230   51.7720 C.3    76  ARG76       0.0492
     28  CD        24.3750   19.3450   53.2190 C.3    76  ARG76       0.2205
     29  NE        25.6030   19.2610   54.0160 N.pl3  76  ARG76      -0.0865
     30  CZ        26.4230   18.2160   54.0480 C.cat  76  ARG76       0.5346
     31  NH1       26.1760   17.1390   53.3250 N.pl3  76  ARG76       0.1354
     32  NH2       27.4850   18.2420   54.8240 N.pl3  76  ARG76       0.1354
     33  N         24.5040   18.5810   47.8020 N.am   77  ILE77      -0.1977
     34  CA        25.1420   18.8120   46.5200 C.3    77  ILE77       0.1596
     35  C         24.1650   18.3660   45.4490 C.2    77  ILE77       0.2287
     36  O         24.3010   17.3080   44.8370 O.2    77  ILE77      -0.2864
     37  CB        26.4900   18.0730   46.4090 C.3    77  ILE77       0.0276
     38  CG1       27.4910   18.7590   47.3370 C.3    77  ILE77       0.0022
     39  CG2       27.0200   18.1230   44.9650 C.3    77  ILE77       0.0022
     40  CD1       28.9210   18.3510   47.0960 C.3    77  ILE77       0.0001
     41  N         27.3220   13.1440   42.3570 N.3   166  SER166     -0.1217
     42  CA        26.4410   13.2440   43.5050 C.3   166  SER166      0.1889
     43  C         25.3130   12.2070   43.4100 C.2   166  SER166      0.2288
     44  O         24.8500   11.6880   44.4320 O.2   166  SER166     -0.2866
     45  CB        25.8740   14.6590   43.5910 C.3   166  SER166      0.2089
     46  OG        25.1190   14.8380   44.7720 O.3   166  SER166     -0.2183
     47  N         26.3200    8.8900   44.6160 N.3   169  ASN169     -0.1240
     48  CA        26.3160    8.9940   46.0730 C.3   169  ASN169      0.1653
     49  C         24.9030    8.7720   46.6090 C.2   169  ASN169      0.2266
     50  O         24.6950    8.0400   47.5880 O.2   169  ASN169     -0.2867
     51  CB        26.7930   10.3810   46.4980 C.3   169  ASN169      0.1155
     52  CG        26.9310   10.5170   47.9980 C.2   169  ASN169      0.2627
     53  OD1       26.3430   11.4130   48.6130 O.2   169  ASN169     -0.2716
     54  ND2       27.7160    9.6380   48.5980 N.am  169  ASN169     -0.0877
     55  N         23.6670    5.6020   48.8130 N.3   173  LEU173     -0.1231
     56  CA        23.1240    5.8760   50.1410 C.3   173  LEU173      0.1693
     57  C         21.6530    5.4920   50.3190 C.2   173  LEU173      0.2591
     58  O         21.2540    5.0130   51.3800 O.2   173  LEU173     -0.2718
     59  CB        23.2710    7.3670   50.4580 C.3   173  LEU173      0.0284
     60  CG        24.6590    7.9050   50.8120 C.3   173  LEU173      0.0019
     61  CD1       24.6670    9.4300   50.6980 C.3   173  LEU173      0.0001
     62  CD2       25.0170    7.4590   52.2290 C.3   173  LEU173      0.0001
     63  N         20.8470    5.6940   49.2830 N.am  174  ARG174     -0.1980
     64  CA        19.4270    5.4210   49.4020 C.3   174  ARG174      0.1597
     65  C         18.8880    4.0810   48.8930 C.2   174  ARG174      0.2287
     66  O         17.7910    3.6800   49.2890 O.2   174  ARG174     -0.2864
     67  CB        18.6530    6.5780   48.7700 C.3   174  ARG174      0.0334
     68  CG        18.9930    7.9300   49.3740 C.3   174  ARG174      0.0492
     69  CD        18.6500    7.9950   50.8600 C.3   174  ARG174      0.2205
     70  NE        19.0960    9.2490   51.4600 N.pl3 174  ARG174     -0.0865
     71  CZ        18.8740    9.5940   52.7240 C.cat 174  ARG174      0.5346
     72  NH1       18.2050    8.7790   53.5360 N.pl3 174  ARG174      0.1354
     73  NH2       19.3120   10.7580   53.1740 N.pl3 174  ARG174      0.1354
     74  N         20.2660    1.4920   49.5960 N.3   176  SER176     -0.1217
     75  CA        20.6960    0.6480   50.6990 C.3   176  SER176      0.1889
     76  C         19.4830    0.2000   51.4970 C.2   176  SER176      0.2288
     77  O         18.5130    0.9480   51.6250 O.2   176  SER176     -0.2866
     78  CB        21.6410    1.4380   51.6020 C.3   176  SER176      0.2089
     79  OG        21.6350    0.9240   52.9180 O.3   176  SER176     -0.2183
     80  N         19.2350    0.0470   54.5190 N.3   178  LYS178     -0.1231
     81  CA        19.1890    0.7610   55.7950 C.3   178  LYS178      0.1693
     82  C         18.4070    2.0650   55.6230 C.2   178  LYS178      0.2591
     83  O         18.1130    2.7610   56.5940 O.2   178  LYS178     -0.2718
     84  CB        20.6040    1.0730   56.2990 C.3   178  LYS178      0.0285
     85  CG        21.4770   -0.1500   56.5580 C.3   178  LYS178      0.0035
     86  CD        20.8260   -1.0900   57.5640 C.3   178  LYS178      0.0206
     87  CE        21.7420   -2.2590   57.9240 C.3   178  LYS178      0.1093
     88  NZ        22.0180   -3.1620   56.7730 N.3   178  LYS178     -0.1314
     89  N         18.0680    2.3890   54.3790 N.am  179  ALA179     -0.1980
     90  CA        17.3270    3.6090   54.0970 C.3   179  ALA179      0.1597
     91  C         15.8290    3.3810   54.1590 C.2   179  ALA179      0.2287
     92  O         15.3450    2.2700   53.9670 O.2   179  ALA179     -0.2864
     93  CB        17.7080    4.1520   52.7200 C.3   179  ALA179      0.0319
@<TRIPOS>BOND
     1    41    42    1
     2    43    42    1
     3    43    44    2
     4    42    45    1
     5    45    46    1
     6    47    48    1
     7    36    35    2
     8    39    37    1
     9    35    34    1
    10    48    51    1
    11    48    49    1
    12    37    34    1
    13    37    38    1
    14    51    52    1
    15    34    33    1
    16    49    50    2
    17    40    38    1
    18    33    24   am
    19    25    24    2
    20    52    54   am
    21    52    53    2
    22    24    23    1
    23    15    14    2
    24    67    68    1
    25    67    64    1
    26    55    56    1
    27    16    17    1
    28    16    13    1
    29    65    66    2
    30    65    64    1
    31    19    17   ar
    32    19    21   ar
    33    63    64    1
    34    63    57   am
    35    17    18   ar
    36    68    69    1
    37    14    13    1
    38    14    22   am
    39    74    75    1
    40    23    22    1
    41    23    26    1
    42    21    20   ar
    43    13    12    1
    44    56    57    1
    45    56    59    1
    46    18    20   ar
    47    57    58    2
    48    59    60    1
    49    61    60    1
    50    75    76    1
    51    75    78    1
    52    60    62    1
    53    69    70    1
    54    26    27    1
    55    12     3   am
    56    70    71    2
    57    76    77    2
    58    78    79    1
    59    27    28    1
    60     3     4    2
    61     3     2    1
    62     1     2    1
    63    93    90    1
    64    71    73    1
    65    71    72    1
    66     2     5    1
    67    28    29    1
    68    31    30    1
    69    92    91    2
    70    29    30    2
    71    30    32    1
    72    90    91    1
    73    90    89    1
    74     5     6    1
    75    89    82   am
    76    80    81    1
    77     6     7    1
    78    82    81    1
    79    82    83    2
    80    81    84    1
    81     7     8    1
    82    84    85    1
    83    85    86    1
    84    88    87    1
    85     8     9    2
    86    86    87    1
    87     9    11    1
    88     9    10    1
