@<TRIPOS>MOLECULE
tmp/3ah5A00.pdb
 93 88 0 0 0
SMALL
GASTEIGER

@<TRIPOS>ATOM
      1  N          6.2800   14.2840   52.2480 N.3    66  ARG66      -0.1245
      2  CA         7.0900   15.3480   52.8120 C.3    66  ARG66       0.1563
      3  C          8.0770   14.7600   53.8020 C.2    66  ARG66       0.2260
      4  O          9.1640   15.3080   54.0090 O.2    66  ARG66      -0.2867
      5  CB         6.2100   16.4120   53.4750 C.3    66  ARG66       0.0307
      6  CG         5.8560   17.5420   52.5120 C.3    66  ARG66       0.0489
      7  CD         4.9340   18.5480   53.1440 C.3    66  ARG66       0.2205
      8  NE         5.5880   19.3810   54.1460 N.pl3  66  ARG66      -0.0865
      9  CZ         6.2900   20.4720   53.8640 C.cat  66  ARG66       0.5346
     10  NH1        6.4350   20.8590   52.6000 N.pl3  66  ARG66       0.1354
     11  NH2        6.8190   21.1940   54.8470 N.pl3  66  ARG66       0.1354
     12  N         10.8440   14.0320   51.9140 N.3    69  LEU69      -0.1245
     13  CA        11.4720   15.2600   51.4360 C.3    69  LEU69       0.1561
     14  C         12.5410   15.6430   52.4670 C.2    69  LEU69       0.2260
     15  O         13.6140   16.1210   52.1240 O.2    69  LEU69      -0.2867
     16  CB        10.4390   16.3880   51.3240 C.3    69  LEU69       0.0270
     17  CG        10.9840   17.7550   50.8870 C.3    69  LEU69       0.0019
     18  CD1       11.4810   17.6790   49.4560 C.3    69  LEU69       0.0001
     19  CD2        9.9010   18.8010   51.0010 C.3    69  LEU69       0.0001
     20  N         16.2760   16.3580   50.9690 N.3    73  SER73      -0.1217
     21  CA        16.9010   17.6660   51.1180 C.3    73  SER73       0.1889
     22  C         18.2730   17.6340   51.7840 C.2    73  SER73       0.2288
     23  O         19.0500   18.5740   51.6320 O.2    73  SER73      -0.2866
     24  CB        15.9880   18.6090   51.9010 C.3    73  SER73       0.2089
     25  OG        14.8490   18.9540   51.1360 O.3    73  SER73      -0.2183
     26  N         17.1260   21.9090   44.0060 N.3    80  LEU80      -0.1245
     27  CA        15.7100   21.6150   43.9880 C.3    80  LEU80       0.1561
     28  C         14.8040   22.8180   44.1580 C.2    80  LEU80       0.2260
     29  O         15.1550   23.8090   44.8010 O.2    80  LEU80      -0.2867
     30  CB        15.3750   20.5550   45.0460 C.3    80  LEU80       0.0270
     31  CG        15.8750   20.6740   46.4860 C.3    80  LEU80       0.0019
     32  CD1       15.4220   19.4410   47.2630 C.3    80  LEU80       0.0001
     33  CD2       17.3900   20.7620   46.5160 C.3    80  LEU80       0.0001
     34  N         10.9870   23.0810   45.2500 N.3    82  VAL82      -0.1231
     35  CA         9.9160   22.3060   45.8450 C.3    82  VAL82       0.1692
     36  C          8.6080   23.0340   46.1020 C.2    82  VAL82       0.2592
     37  O          8.5820   24.1930   46.5390 O.2    82  VAL82      -0.2718
     38  CB        10.3890   21.7180   47.1940 C.3    82  VAL82       0.0266
     39  CG1        9.3940   20.6590   47.7060 C.3    82  VAL82       0.0020
     40  CG2       11.7980   21.1430   47.0350 C.3    82  VAL82       0.0020
     41  N          7.5190   22.3250   45.8300 N.am   83  LYS83      -0.1966
     42  CA         6.1800   22.8280   46.0600 C.3    83  LYS83       0.1728
     43  C          6.1590   23.3310   47.5050 C.2    83  LYS83       0.2617
     44  O          6.5430   22.6070   48.4310 O.2    83  LYS83      -0.2715
     45  CB         5.1800   21.6830   45.8790 C.3    83  LYS83       0.0311
     46  CG         3.7550   21.9860   46.3010 C.3    83  LYS83       0.0038
     47  CD         2.8430   20.7840   46.0320 C.3    83  LYS83       0.0206
     48  CE         1.4190   21.0750   46.4670 C.3    83  LYS83       0.1093
     49  NZ         0.5300   19.8800   46.3730 N.3    83  LYS83      -0.1314
     50  N          5.7230   24.5710   47.6930 N.am   84  SER84      -0.1936
     51  CA         5.6700   25.1540   49.0240 C.3    84  SER84       0.2055
     52  C          4.3010   25.0380   49.6680 C.2    84  SER84       0.2644
     53  O          3.3090   25.5040   49.1050 O.2    84  SER84      -0.2714
     54  CB         6.0610   26.6290   48.9580 C.3    84  SER84       0.2130
     55  OG         5.6690   27.3040   50.1380 O.3    84  SER84      -0.2179
     56  N          4.2510   24.4220   50.8480 N.am   85  SER85      -0.1935
     57  CA         2.9990   24.2770   51.5860 C.3    85  SER85       0.2055
     58  C          2.5380   25.6620   52.0530 C.2    85  SER85       0.2643
     59  O          1.3430   25.8950   52.2680 O.2    85  SER85      -0.2714
     60  CB         3.1740   23.3470   52.8000 C.3    85  SER85       0.2130
     61  OG         3.9360   23.9510   53.8320 O.3    85  SER85      -0.2179
     62  N          3.4890   26.5820   52.1930 N.am   86  ARG86      -0.1963
     63  CA         3.1780   27.9400   52.6160 C.3    86  ARG86       0.1729
     64  C          2.4580   28.7040   51.5120 C.2    86  ARG86       0.2616
     65  O          1.5450   29.4830   51.7810 O.2    86  ARG86      -0.2715
     66  CB         4.4540   28.7040   52.9860 C.3    86  ARG86       0.0348
     67  CG         5.1620   28.2260   54.2530 C.3    86  ARG86       0.0492
     68  CD         6.3680   29.1110   54.5530 C.3    86  ARG86       0.2205
     69  NE         5.9500   30.4710   54.8710 N.pl3  86  ARG86      -0.0865
     70  CZ         6.6580   31.5620   54.5970 C.cat  86  ARG86       0.5346
     71  NH1        7.8350   31.4610   53.9950 N.pl3  86  ARG86       0.1354
     72  NH2        6.1760   32.7590   54.9140 N.pl3  86  ARG86       0.1354
     73  N          2.8640   28.4730   50.2690 N.am   87  TYR87      -0.1974
     74  CA         2.2680   29.1740   49.1380 C.3    87  TYR87       0.1639
     75  C          1.1310   28.4260   48.4420 C.2    87  TYR87       0.2290
     76  O          0.4530   29.0050   47.5920 O.2    87  TYR87      -0.2864
     77  CB         3.3390   29.4900   48.0740 C.3    87  TYR87       0.0560
     78  CG         4.5730   30.2360   48.5640 C.ar   87  TYR87      -0.0198
     79  CD1        4.4820   31.2010   49.5650 C.ar   87  TYR87      -0.0009
     80  CD2        5.8270   30.0180   47.9730 C.ar   87  TYR87      -0.0009
     81  CE1        5.6050   31.9370   49.9690 C.ar   87  TYR87       0.0417
     82  CE2        6.9560   30.7510   48.3670 C.ar   87  TYR87       0.0417
     83  CZ         6.8360   31.7080   49.3670 C.ar   87  TYR87       0.1957
     84  OH         7.9340   32.4380   49.7820 O.3    87  TYR87      -0.2866
     85  N         -0.1550   24.8180   58.4330 N.3   147  LYS147     -0.1245
     86  CA         0.8260   23.8280   57.9930 C.3   147  LYS147      0.1561
     87  C          1.3370   22.9740   59.1570 C.2   147  LYS147      0.2260
     88  O          1.6740   21.8080   58.9710 O.2   147  LYS147     -0.2867
     89  CB         2.0160   24.5080   57.2910 C.3   147  LYS147      0.0271
     90  CG         2.9080   25.3350   58.2080 C.3   147  LYS147      0.0035
     91  CD         3.9510   26.1410   57.4290 C.3   147  LYS147      0.0206
     92  CE         5.2610   25.3810   57.2320 C.3   147  LYS147      0.1093
     93  NZ         5.1240   24.1220   56.4450 N.3   147  LYS147     -0.1314
@<TRIPOS>BOND
     1    27    26    1
     2    27    28    1
     3    27    30    1
     4    28    29    2
     5    30    31    1
     6    34    35    1
     7    41    42    1
     8    41    36   am
     9    35    36    1
    10    35    38    1
    11    45    42    1
    12    45    46    1
    13    47    46    1
    14    47    48    1
    15    42    43    1
    16    36    37    2
    17    49    48    1
    18    31    33    1
    19    31    32    1
    20    40    38    1
    21    38    39    1
    22    43    50   am
    23    43    44    2
    24    76    75    2
    25    50    51    1
    26    80    82   ar
    27    80    78   ar
    28    77    78    1
    29    77    74    1
    30    82    83   ar
    31    75    74    1
    32    78    79   ar
    33    54    51    1
    34    54    55    1
    35    51    52    1
    36    53    52    2
    37    74    73    1
    38    83    84    1
    39    83    81   ar
    40    18    17    1
    41    79    81   ar
    42    52    56   am
    43    73    64   am
    44    56    57    1
    45    17    19    1
    46    17    16    1
    47    20    21    1
    48    21    22    1
    49    21    24    1
    50    25    24    1
    51    16    13    1
    52    13    12    1
    53    13    14    1
    54    64    65    2
    55    64    63    1
    56    57    58    1
    57    57    60    1
    58    23    22    2
    59    58    62   am
    60    58    59    2
    61    15    14    2
    62    62    63    1
    63     1     2    1
    64     6     7    1
    65     6     5    1
    66    10     9    1
    67    63    66    1
    68    60    61    1
    69     2     5    1
    70     2     3    1
    71    66    67    1
    72     7     8    1
    73     3     4    2
    74     9     8    2
    75     9    11    1
    76    71    70    1
    77    67    68    1
    78    68    69    1
    79    70    69    2
    80    70    72    1
    81    93    92    1
    82    92    91    1
    83    89    86    1
    84    89    90    1
    85    91    90    1
    86    86    85    1
    87    86    87    1
    88    88    87    2
