@<TRIPOS>MOLECULE
tmp/3ah5A03.pdb
 80 78 0 0 0
SMALL
GASTEIGER

@<TRIPOS>ATOM
      1  N         22.9230   17.8620   50.0220 N.3    76  ARG76      -0.1231
      2  CA        23.1470   19.2510   49.6900 C.3    76  ARG76       0.1694
      3  C         23.8400   19.5660   48.3810 C.2    76  ARG76       0.2592
      4  O         23.7730   20.7020   47.8930 O.2    76  ARG76      -0.2718
      5  CB        23.8380   19.9460   50.8670 C.3    76  ARG76       0.0321
      6  CG        24.6170   19.0230   51.7720 C.3    76  ARG76       0.0489
      7  CD        24.3750   19.3450   53.2190 C.3    76  ARG76       0.2205
      8  NE        25.6030   19.2610   54.0160 N.pl3  76  ARG76      -0.0865
      9  CZ        26.4230   18.2160   54.0480 C.cat  76  ARG76       0.5346
     10  NH1       26.1760   17.1390   53.3250 N.pl3  76  ARG76       0.1354
     11  NH2       27.4850   18.2420   54.8240 N.pl3  76  ARG76       0.1354
     12  N         24.5040   18.5810   47.8020 N.am   77  ILE77      -0.1966
     13  CA        25.1420   18.8120   46.5200 C.3    77  ILE77       0.1727
     14  C         24.1650   18.3660   45.4490 C.2    77  ILE77       0.2616
     15  O         24.3010   17.3080   44.8370 O.2    77  ILE77      -0.2715
     16  CB        26.4900   18.0730   46.4090 C.3    77  ILE77       0.0290
     17  CG1       27.4910   18.7590   47.3370 C.3    77  ILE77       0.0022
     18  CG2       27.0200   18.1230   44.9650 C.3    77  ILE77       0.0023
     19  CD1       28.9210   18.3510   47.0960 C.3    77  ILE77       0.0001
     20  N         23.1490   19.2020   45.2670 N.am   78  ALA78      -0.1963
     21  CA        22.0850   18.9930   44.2980 C.3    78  ALA78       0.1728
     22  C         21.2370   20.2520   44.3510 C.2    78  ALA78       0.2617
     23  O         21.4390   21.0930   45.2250 O.2    78  ALA78      -0.2715
     24  CB        21.2520   17.7800   44.6780 C.3    78  ALA78       0.0334
     25  N         20.2920   20.3830   43.4260 N.am   79  SER79      -0.1936
     26  CA        19.4320   21.5650   43.3790 C.3    79  SER79       0.2055
     27  C         17.9670   21.1700   43.2940 C.2    79  SER79       0.2643
     28  O         17.6010   20.2180   42.5890 O.2    79  SER79      -0.2714
     29  CB        19.7820   22.4410   42.1720 C.3    79  SER79       0.2130
     30  OG        21.1470   22.8110   42.1940 O.3    79  SER79      -0.2179
     31  N         17.1260   21.9090   44.0060 N.am   80  LEU80      -0.1963
     32  CA        15.7100   21.6150   43.9880 C.3    80  LEU80       0.1728
     33  C         14.8040   22.8180   44.1580 C.2    80  LEU80       0.2617
     34  O         15.1550   23.8090   44.8010 O.2    80  LEU80      -0.2715
     35  CB        15.3750   20.5550   45.0460 C.3    80  LEU80       0.0311
     36  CG        15.8750   20.6740   46.4860 C.3    80  LEU80       0.0022
     37  CD1       15.4220   19.4410   47.2630 C.3    80  LEU80       0.0001
     38  CD2       17.3900   20.7620   46.5160 C.3    80  LEU80       0.0001
     39  N         13.6390   22.7240   43.5300 N.am   81  SER81      -0.1936
     40  CA        12.6070   23.7480   43.6090 C.3    81  SER81       0.2055
     41  C         11.4200   22.8980   44.0090 C.2    81  SER81       0.2642
     42  O         10.9320   22.0820   43.2260 O.2    81  SER81      -0.2714
     43  CB        12.4020   24.4060   42.2490 C.3    81  SER81       0.2130
     44  OG        13.6010   25.0360   41.8300 O.3    81  SER81      -0.2179
     45  N         10.9870   23.0810   45.2500 N.am   82  VAL82      -0.1977
     46  CA         9.9160   22.3060   45.8450 C.3    82  VAL82       0.1596
     47  C          8.6080   23.0340   46.1020 C.2    82  VAL82       0.2287
     48  O          8.5820   24.1930   46.5390 O.2    82  VAL82      -0.2864
     49  CB        10.3890   21.7180   47.1940 C.3    82  VAL82       0.0276
     50  CG1        9.3940   20.6590   47.7060 C.3    82  VAL82       0.0022
     51  CG2       11.7980   21.1430   47.0350 C.3    82  VAL82       0.0022
     52  N          5.7230   24.5710   47.6930 N.3    84  SER84      -0.1217
     53  CA         5.6700   25.1540   49.0240 C.3    84  SER84       0.1889
     54  C          4.3010   25.0380   49.6680 C.2    84  SER84       0.2288
     55  O          3.3090   25.5040   49.1050 O.2    84  SER84      -0.2866
     56  CB         6.0610   26.6290   48.9580 C.3    84  SER84       0.2089
     57  OG         5.6690   27.3040   50.1380 O.3    84  SER84      -0.2183
     58  N          3.4890   26.5820   52.1930 N.3    86  ARG86      -0.1231
     59  CA         3.1780   27.9400   52.6160 C.3    86  ARG86       0.1694
     60  C          2.4580   28.7040   51.5120 C.2    86  ARG86       0.2592
     61  O          1.5450   29.4830   51.7810 O.2    86  ARG86      -0.2718
     62  CB         4.4540   28.7040   52.9860 C.3    86  ARG86       0.0321
     63  CG         5.1620   28.2260   54.2530 C.3    86  ARG86       0.0489
     64  CD         6.3680   29.1110   54.5530 C.3    86  ARG86       0.2205
     65  NE         5.9500   30.4710   54.8710 N.pl3  86  ARG86      -0.0865
     66  CZ         6.6580   31.5620   54.5970 C.cat  86  ARG86       0.5346
     67  NH1        7.8350   31.4610   53.9950 N.pl3  86  ARG86       0.1354
     68  NH2        6.1760   32.7590   54.9140 N.pl3  86  ARG86       0.1354
     69  N          2.8640   28.4730   50.2690 N.am   87  TYR87      -0.1976
     70  CA         2.2680   29.1740   49.1380 C.3    87  TYR87       0.1639
     71  C          1.1310   28.4260   48.4420 C.2    87  TYR87       0.2290
     72  O          0.4530   29.0050   47.5920 O.2    87  TYR87      -0.2864
     73  CB         3.3390   29.4900   48.0740 C.3    87  TYR87       0.0560
     74  CG         4.5730   30.2360   48.5640 C.ar   87  TYR87      -0.0198
     75  CD1        4.4820   31.2010   49.5650 C.ar   87  TYR87      -0.0009
     76  CD2        5.8270   30.0180   47.9730 C.ar   87  TYR87      -0.0009
     77  CE1        5.6050   31.9370   49.9690 C.ar   87  TYR87       0.0417
     78  CE2        6.9560   30.7510   48.3670 C.ar   87  TYR87       0.0417
     79  CZ         6.8360   31.7080   49.3670 C.ar   87  TYR87       0.1957
     80  OH         7.9340   32.4380   49.7820 O.3    87  TYR87      -0.2866
@<TRIPOS>BOND
     1    44    43    1
     2    29    30    1
     3    29    26    1
     4    43    40    1
     5    28    27    2
     6    42    41    2
     7    27    26    1
     8    27    31   am
     9    26    25    1
    10    25    22   am
    11    39    40    1
    12    39    33   am
    13    40    41    1
    14    32    31    1
    15    32    33    1
    16    32    35    1
    17    41    45   am
    18    33    34    2
    19    21    22    1
    20    21    24    1
    21    21    20    1
    22    22    23    2
    23    15    14    2
    24    18    16    1
    25    35    36    1
    26    45    46    1
    27    20    14   am
    28    14    13    1
    29    46    47    1
    30    46    49    1
    31    47    48    2
    32    16    13    1
    33    16    17    1
    34    36    38    1
    35    36    37    1
    36    13    12    1
    37    51    49    1
    38    19    17    1
    39    49    50    1
    40    72    71    2
    41    52    53    1
    42    12     3   am
    43     4     3    2
    44    76    78   ar
    45    76    74   ar
    46    73    74    1
    47    73    70    1
    48    78    79   ar
    49     3     2    1
    50    71    70    1
    51    74    75   ar
    52    56    53    1
    53    56    57    1
    54    53    54    1
    55    55    54    2
    56    70    69    1
    57    79    80    1
    58    79    77   ar
    59    75    77   ar
    60     2     1    1
    61     2     5    1
    62    69    60   am
    63     5     6    1
    64    60    61    2
    65    60    59    1
    66     6     7    1
    67    58    59    1
    68    59    62    1
    69    62    63    1
    70     7     8    1
    71    10     9    1
    72    67    66    1
    73     8     9    2
    74     9    11    1
    75    63    64    1
    76    64    65    1
    77    66    65    2
    78    66    68    1
