@<TRIPOS>MOLECULE
tmp/3ah8A00.pdb
 160 155 0 0 0
SMALL
GASTEIGER

@<TRIPOS>ATOM
      1  N         19.6310  -24.3850  -36.6410 N.3    41  SER41      -0.1217
      2  CA        18.9060  -23.8760  -37.7980 C.3    41  SER41       0.1889
      3  C         19.8560  -23.5410  -38.9470 C.2    41  SER41       0.2288
      4  O         19.6800  -24.0080  -40.0720 O.2    41  SER41      -0.2866
      5  CB        18.0890  -22.6560  -37.3970 C.3    41  SER41       0.2089
      6  OG        18.2920  -21.6060  -38.3260 O.3    41  SER41      -0.2183
      7  N         21.2090  -26.6600  -40.7870 N.3    44  ILE44      -0.1231
      8  CA        20.1870  -27.0870  -41.7390 C.3    44  ILE44       0.1692
      9  C         20.2010  -26.2380  -43.0180 C.2    44  ILE44       0.2591
     10  O         20.1210  -26.7730  -44.1310 O.2    44  ILE44      -0.2718
     11  CB        18.7760  -27.0500  -41.1110 C.3    44  ILE44       0.0266
     12  CG1       18.7940  -27.7020  -39.7230 C.3    44  ILE44       0.0019
     13  CG2       17.7620  -27.7180  -42.0380 C.3    44  ILE44       0.0020
     14  CD1       17.4290  -27.8960  -39.0760 C.3    44  ILE44       0.0001
     15  N         20.3200  -24.9210  -42.8410 N.am   45  LYS45      -0.1980
     16  CA        20.3290  -23.9670  -43.9550 C.3    45  LYS45       0.1596
     17  C         21.5280  -24.2090  -44.8650 C.2    45  LYS45       0.2287
     18  O         21.3880  -24.2030  -46.0940 O.2    45  LYS45      -0.2864
     19  CB        20.3090  -22.5170  -43.4550 C.3    45  LYS45       0.0298
     20  CG        19.3280  -22.2770  -42.3080 C.3    45  LYS45       0.0038
     21  CD        19.2460  -20.8240  -41.8710 C.3    45  LYS45       0.0206
     22  CE        18.0370  -20.1440  -42.4810 C.3    45  LYS45       0.1093
     23  NZ        17.7590  -18.8460  -41.8090 N.3    45  LYS45      -0.1314
     24  N         21.1490  -27.1900  -47.3530 N.3    48  ARG48      -0.1245
     25  CA        20.3280  -26.8810  -48.5100 C.3    48  ARG48       0.1563
     26  C         21.1510  -26.1530  -49.5680 C.2    48  ARG48       0.2260
     27  O         20.7110  -25.9730  -50.7060 O.2    48  ARG48      -0.2867
     28  CB        19.1530  -26.0050  -48.0670 C.3    48  ARG48       0.0307
     29  CG        18.0590  -25.8730  -49.1080 C.3    48  ARG48       0.0489
     30  CD        16.9270  -24.9650  -48.6790 C.3    48  ARG48       0.2205
     31  NE        16.3810  -24.2570  -49.8340 N.pl3  48  ARG48      -0.0865
     32  CZ        15.1340  -23.8010  -49.9290 C.cat  48  ARG48       0.5346
     33  NH1       14.2720  -23.9800  -48.9340 N.pl3  48  ARG48       0.1354
     34  NH2       14.7430  -23.1690  -51.0310 N.pl3  48  ARG48       0.1354
     35  N         19.0390  -21.4150  -52.5060 N.3    55  TYR55      -0.1241
     36  CA        18.0650  -20.3610  -52.2920 C.3    55  TYR55       0.1605
     37  C         18.0870  -19.4150  -53.4880 C.2    55  TYR55       0.2264
     38  O         18.8320  -18.4320  -53.5050 O.2    55  TYR55      -0.2867
     39  CB        18.3490  -19.6100  -50.9930 C.3    55  TYR55       0.0534
     40  CG        18.2620  -20.4550  -49.7380 C.ar   55  TYR55      -0.0201
     41  CD1       19.3900  -21.0720  -49.2120 C.ar   55  TYR55      -0.0009
     42  CD2       17.0510  -20.6210  -49.0720 C.ar   55  TYR55      -0.0009
     43  CE1       19.3130  -21.8390  -48.0580 C.ar   55  TYR55       0.0417
     44  CE2       16.9620  -21.3820  -47.9120 C.ar   55  TYR55       0.0417
     45  CZ        18.0950  -21.9890  -47.4050 C.ar   55  TYR55       0.1957
     46  OH        18.0060  -22.7490  -46.2490 O.3    55  TYR55      -0.2866
     47  N         13.1350  -17.9800  -53.7050 N.3    59  ASP59      -0.1239
     48  CA        13.3090  -18.5270  -52.3570 C.3    59  ASP59       0.1674
     49  C         13.7520  -17.4470  -51.3790 C.2    59  ASP59       0.2266
     50  O         13.3320  -17.4420  -50.2180 O.2    59  ASP59      -0.2867
     51  CB        14.3390  -19.6600  -52.3520 C.3    59  ASP59       0.1410
     52  CG        14.0150  -20.7560  -53.3440 C.2    59  ASP59       0.3668
     53  OD1       13.1390  -21.5930  -53.0360 O.co2  59  ASP59      -0.2456
     54  OD2       14.6500  -20.7840  -54.4230 O.co2  59  ASP59      -0.2456
     55  N         11.0550  -14.7360  -49.8830 N.3    62  GLY62      -0.1210
     56  CA        10.2630  -15.2860  -48.7900 C.3    62  GLY62       0.1956
     57  C         10.8860  -15.0570  -47.4270 C.2    62  GLY62       0.2611
     58  O         10.2640  -15.3310  -46.4020 O.2    62  GLY62      -0.2717
     59  N         12.1180  -14.5560  -47.4110 N.am   63  PHE63      -0.1976
     60  CA        12.7990  -14.2410  -46.1640 C.3    63  PHE63       0.1639
     61  C         12.7520  -12.7560  -45.8410 C.2    63  PHE63       0.2290
     62  O         12.8150  -12.3830  -44.6710 O.2    63  PHE63      -0.2864
     63  CB        14.2530  -14.7110  -46.2010 C.3    63  PHE63       0.0560
     64  CG        14.4190  -16.2030  -46.0910 C.ar   63  PHE63      -0.0200
     65  CD1       14.5400  -16.8130  -44.8440 C.ar   63  PHE63      -0.0042
     66  CD2       14.4800  -16.9970  -47.2370 C.ar   63  PHE63      -0.0042
     67  CE1       14.7020  -18.1930  -44.7350 C.ar   63  PHE63      -0.0003
     68  CE2       14.6420  -18.3800  -47.1410 C.ar   63  PHE63      -0.0003
     69  CZ        14.7530  -18.9800  -45.8850 C.ar   63  PHE63      -0.0000
     70  N         11.1990  -11.6820  -42.7570 N.3    66  LEU66      -0.1245
     71  CA        11.8700  -12.1630  -41.5510 C.3    66  LEU66       0.1561
     72  C         13.0630  -11.2990  -41.1800 C.2    66  LEU66       0.2260
     73  O         13.3540  -11.0940  -39.9980 O.2    66  LEU66      -0.2867
     74  CB        12.3290  -13.6060  -41.7540 C.3    66  LEU66       0.0270
     75  CG        11.2070  -14.6340  -41.9300 C.3    66  LEU66       0.0019
     76  CD1       11.5210  -15.6120  -43.0570 C.3    66  LEU66       0.0001
     77  CD2       10.9200  -15.3640  -40.6200 C.3    66  LEU66       0.0001
     78  N         14.0820  -17.5680  -38.0940 N.3   172  VAL172     -0.1231
     79  CA        12.8850  -18.0410  -38.7920 C.3   172  VAL172      0.1678
     80  C         11.9700  -18.7590  -37.8050 C.2   172  VAL172      0.2434
     81  O         12.1230  -19.9640  -37.6030 O.2   172  VAL172     -0.2733
     82  CB        13.2410  -19.0030  -39.9610 C.3   172  VAL172      0.0265
     83  CG1       13.3710  -18.2460  -41.2620 C.3   172  VAL172      0.0020
     84  CG2       14.5220  -19.7930  -39.6530 C.3   172  VAL172      0.0020
     85  N         11.0140  -18.0250  -37.1880 N.am  173  PRO173     -0.2718
     86  CA        10.2180  -18.5460  -36.0690 C.3   173  PRO173      0.1535
     87  C          9.6420  -19.9280  -36.3540 C.2   173  PRO173      0.2599
     88  O          8.7120  -20.0600  -37.1470 O.2   173  PRO173     -0.2715
     89  CB         9.1080  -17.5040  -35.9200 C.3   173  PRO173      0.0310
     90  CG         9.7440  -16.2460  -36.3720 C.3   173  PRO173      0.0237
     91  CD        10.6130  -16.6480  -37.5280 C.3   173  PRO173      0.0939
     92  N         10.2230  -20.9440  -35.7200 N.am  174  THR174     -0.1937
     93  CA         9.8840  -22.3300  -36.0040 C.3   174  THR174      0.2028
     94  C          8.5700  -22.6850  -35.3210 C.2   174  THR174      0.2642
     95  O          8.4610  -22.6470  -34.0840 O.2   174  THR174     -0.2714
     96  CB        11.0140  -23.3410  -35.5860 C.3   174  THR174      0.1808
     97  OG1       10.8990  -23.6920  -34.1990 O.3   174  THR174     -0.2208
     98  CG2       12.4260  -22.7940  -35.8680 C.3   174  THR174      0.0379
     99  N          7.5710  -23.0120  -36.1390 N.am  175  THR175     -0.1950
    100  CA         6.2790  -23.4790  -35.6410 C.3   175  THR175      0.1897
    101  C          6.4830  -24.5860  -34.5810 C.2   175  THR175      0.2313
    102  O          6.0070  -24.4640  -33.4450 O.2   175  THR175     -0.2863
    103  CB         5.3270  -23.9040  -36.8130 C.3   175  THR175      0.1794
    104  OG1        4.1640  -24.5660  -36.2950 O.3   175  THR175     -0.2208
    105  CG2        6.0370  -24.8240  -37.8190 C.3   175  THR175      0.0378
    106  N          8.4280  -28.5690  -35.3130 N.3   177  ILE177     -0.1231
    107  CA         9.4770  -29.4430  -35.8210 C.3   177  ILE177      0.1692
    108  C         10.0010  -28.9810  -37.1730 C.2   177  ILE177      0.2592
    109  O          9.2380  -28.5800  -38.0530 O.2   177  ILE177     -0.2718
    110  CB         9.0570  -30.9380  -35.8690 C.3   177  ILE177      0.0266
    111  CG1       10.2880  -31.8210  -36.1160 C.3   177  ILE177      0.0019
    112  CG2        7.9570  -31.1780  -36.9070 C.3   177  ILE177      0.0020
    113  CD1       10.0230  -33.3030  -36.0540 C.3   177  ILE177      0.0001
    114  N         11.3220  -29.0300  -37.3000 N.am  178  ILE178     -0.1966
    115  CA        12.0090  -28.7350  -38.5410 C.3   178  ILE178      0.1727
    116  C         12.7220  -30.0040  -38.9770 C.2   178  ILE178      0.2616
    117  O         13.7000  -30.4210  -38.3520 O.2   178  ILE178     -0.2715
    118  CB        13.0770  -27.6090  -38.3820 C.3   178  ILE178      0.0290
    119  CG1       12.7340  -26.6130  -37.2570 C.3   178  ILE178      0.0022
    120  CG2       13.3430  -26.9280  -39.7170 C.3   178  ILE178      0.0023
    121  CD1       11.4460  -25.8780  -37.4200 C.3   178  ILE178      0.0001
    122  N         12.2180  -30.6390  -40.0270 N.am  179  GLU179     -0.1963
    123  CA        12.9470  -31.7470  -40.6350 C.3   179  GLU179      0.1733
    124  C         13.3490  -31.4430  -42.0790 C.2   179  GLU179      0.2616
    125  O         12.5310  -30.9640  -42.8640 O.2   179  GLU179     -0.2715
    126  CB        12.2090  -33.0960  -40.4820 C.3   179  GLU179      0.0429
    127  CG        10.7330  -33.1630  -40.9050 C.3   179  GLU179      0.1163
    128  CD        10.2200  -34.6130  -41.0260 C.2   179  GLU179      0.3649
    129  OE1       10.8820  -35.4370  -41.7030 O.co2 179  GLU179     -0.2457
    130  OE2        9.1510  -34.9290  -40.4550 O.co2 179  GLU179     -0.2457
    131  N         14.6200  -31.6890  -42.4050 N.am  180  TYR180     -0.1960
    132  CA        15.1280  -31.4480  -43.7620 C.3   180  TYR180      0.1756
    133  C         15.8060  -32.6620  -44.4100 C.2   180  TYR180      0.2461
    134  O         16.8230  -33.1570  -43.9090 O.2   180  TYR180     -0.2730
    135  CB        16.0610  -30.2310  -43.8100 C.3   180  TYR180      0.0574
    136  CG        16.5930  -29.9550  -45.1990 C.ar  180  TYR180     -0.0198
    137  CD1       15.7860  -29.3720  -46.1680 C.ar  180  TYR180     -0.0009
    138  CD2       17.9020  -30.2900  -45.5490 C.ar  180  TYR180     -0.0009
    139  CE1       16.2650  -29.1220  -47.4510 C.ar  180  TYR180      0.0417
    140  CE2       18.3920  -30.0450  -46.8320 C.ar  180  TYR180      0.0417
    141  CZ        17.5650  -29.4610  -47.7760 C.ar  180  TYR180      0.1957
    142  OH        18.0230  -29.2180  -49.0520 O.3   180  TYR180     -0.2866
    143  N         15.2400  -33.1330  -45.5390 N.am  181  PRO181     -0.2727
    144  CA        15.7860  -34.2460  -46.2970 C.3   181  PRO181      0.1402
    145  C         16.6980  -33.7930  -47.4360 C.2   181  PRO181      0.2269
    146  O         16.3880  -32.8200  -48.1230 O.2   181  PRO181     -0.2865
    147  CB        14.5330  -34.9140  -46.8600 C.3   181  PRO181      0.0296
    148  CG        13.5400  -33.7920  -47.0130 C.3   181  PRO181      0.0237
    149  CD        13.9960  -32.6320  -46.1500 C.3   181  PRO181      0.0939
    150  N         18.3620  -37.0880  -43.3670 N.3   190  ARG190     -0.1245
    151  CA        17.1930  -36.3560  -42.9050 C.3   190  ARG190      0.1563
    152  C         17.4440  -35.6610  -41.5710 C.2   190  ARG190      0.2260
    153  O         17.2940  -36.2600  -40.5070 O.2   190  ARG190     -0.2867
    154  CB        15.9730  -37.2830  -42.8350 C.3   190  ARG190      0.0307
    155  CG        14.6540  -36.5580  -42.5860 C.3   190  ARG190      0.0489
    156  CD        13.4600  -37.5050  -42.5780 C.3   190  ARG190      0.2205
    157  NE        13.0990  -37.9330  -43.9290 N.pl3 190  ARG190     -0.0865
    158  CZ        12.2460  -37.2860  -44.7190 C.cat 190  ARG190      0.5346
    159  NH1       11.6520  -36.1740  -44.2960 N.pl3 190  ARG190      0.1354
    160  NH2       11.9860  -37.7490  -45.9360 N.pl3 190  ARG190      0.1354
@<TRIPOS>BOND
     1    54    52   ar
     2    47    48    1
     3    38    37    2
     4    37    36    1
     5    52    53   ar
     6    52    51    1
     7    35    36    1
     8    48    51    1
     9    48    49    1
    10    36    39    1
    11    49    50    2
    12    34    32    1
    13    39    40    1
    14    27    26    2
    15    32    31    2
    16    32    33    1
    17    55    56    1
    18    31    30    1
    19    40    41   ar
    20    40    42   ar
    21    26    25    1
    22    41    43   ar
    23    29    30    1
    24    29    28    1
    25    42    44   ar
    26   142   141    1
    27    56    57    1
    28    25    28    1
    29    25    24    1
    30   146   145    2
    31    43    45   ar
    32    44    45   ar
    33   141   139   ar
    34   141   140   ar
    35   139   137   ar
    36   145   144    1
    37    57    59   am
    38    57    58    2
    39    59    60    1
    40    45    46    1
    41    66    68   ar
    42    66    64   ar
    43    68    69   ar
    44   148   147    1
    45   148   149    1
    46   147   144    1
    47   140   138   ar
    48   144   143    1
    49    63    60    1
    50    63    64    1
    51   137   136   ar
    52    60    61    1
    53   149   143    1
    54    18    17    2
    55    64    65   ar
    56   160   158    1
    57    69    67   ar
    58    61    62    2
    59   138   136   ar
    60   143   133   am
    61   136   135    1
    62    17    16    1
    63    65    67   ar
    64   158   159    1
    65   158   157    2
    66   133   134    2
    67   133   132    1
    68    10     9    2
    69    16    19    1
    70    16    15    1
    71   157   156    1
    72   135   132    1
    73   132   131    1
    74    19    20    1
    75   150   151    1
    76    76    75    1
    77     9    15   am
    78     9     8    1
    79   151   154    1
    80   151   152    1
    81   125   124    2
    82   154   155    1
    83    70    71    1
    84   155   156    1
    85    22    21    1
    86    22    23    1
    87   131   124   am
    88    20    21    1
    89   124   123    1
    90    13    11    1
    91    75    74    1
    92    75    77    1
    93    74    71    1
    94     8    11    1
    95     8     7    1
    96   129   128   ar
    97   152   153    2
    98    71    72    1
    99    83    82    1
   100    72    73    2
   101    11    12    1
   102   128   127    1
   103   128   130   ar
   104   127   126    1
   105   123   126    1
   106   123   122    1
   107     4     3    2
   108   122   116   am
   109    82    84    1
   110    82    79    1
   111    12    14    1
   112   120   118    1
   113   116   115    1
   114   116   117    2
   115     3     2    1
   116    79    78    1
   117    79    80    1
   118   115   118    1
   119   115   114    1
   120   118   119    1
   121     6     5    1
   122   109   108    2
   123   105   103    1
   124    80    81    2
   125    80    85   am
   126     2     5    1
   127     2     1    1
   128    91    85    1
   129    91    90    1
   130   121   119    1
   131   114   108   am
   132    85    86    1
   133   108   107    1
   134    88    87    2
   135   112   110    1
   136   103   104    1
   137   103   100    1
   138    90    89    1
   139    87    86    1
   140    87    92   am
   141    99   100    1
   142    99    94   am
   143   111   113    1
   144   111   110    1
   145    86    89    1
   146    93    92    1
   147    93    96    1
   148    93    94    1
   149   110   107    1
   150    98    96    1
   151   107   106    1
   152   100   101    1
   153    96    97    1
   154    94    95    2
   155   101   102    2
