@<TRIPOS>MOLECULE
tmp/3ah8A01.pdb
 161 153 0 0 0
SMALL
GASTEIGER

@<TRIPOS>ATOM
      1  N         21.1430  -25.8330  -26.9650 N.3    35  THR35      -0.1203
      2  CA        20.3880  -24.7260  -26.3780 C.3    35  THR35       0.1994
      3  C         19.9420  -23.6550  -27.3810 C.2    35  THR35       0.2618
      4  O         20.0970  -23.8020  -28.6050 O.2    35  THR35      -0.2717
      5  CB        21.1730  -24.0600  -25.2260 C.3    35  THR35       0.1784
      6  OG1       22.5810  -24.1660  -25.4820 O.3    35  THR35      -0.2211
      7  CG2       20.8700  -24.7470  -23.9140 C.3    35  THR35       0.0376
      8  N         19.3670  -22.5840  -26.8400 N.am   36  GLY36      -0.1942
      9  CA        18.8760  -21.4710  -27.6360 C.3    36  GLY36       0.2014
     10  C         20.0070  -20.6960  -28.2730 C.2    36  GLY36       0.2639
     11  O         20.9950  -20.3460  -27.6060 O.2    36  GLY36      -0.2714
     12  N         19.8550  -20.4630  -29.5770 N.am   37  GLU37      -0.1963
     13  CA        20.7380  -19.6150  -30.3780 C.3    37  GLU37       0.1733
     14  C         22.1110  -20.2440  -30.5870 C.2    37  GLU37       0.2617
     15  O         23.0990  -19.5340  -30.7770 O.2    37  GLU37      -0.2715
     16  CB        20.8400  -18.2060  -29.7740 C.3    37  GLU37       0.0429
     17  CG        20.7560  -17.0880  -30.7920 C.3    37  GLU37       0.1163
     18  CD        19.3260  -16.7630  -31.2030 C.2    37  GLU37       0.3649
     19  OE1       19.0390  -15.5800  -31.4970 O.co2  37  GLU37      -0.2457
     20  OE2       18.4820  -17.6820  -31.2370 O.co2  37  GLU37      -0.2457
     21  N         22.1690  -21.5740  -30.5880 N.am   38  SER38      -0.1936
     22  CA        23.4670  -22.2580  -30.6620 C.3    38  SER38       0.2055
     23  C         23.8740  -22.8690  -32.0180 C.2    38  SER38       0.2644
     24  O         24.9300  -23.4860  -32.1070 O.2    38  SER38      -0.2714
     25  CB        23.6500  -23.2570  -29.4970 C.3    38  SER38       0.2130
     26  OG        22.7130  -24.3210  -29.5490 O.3    38  SER38      -0.2179
     27  N         23.0670  -22.6920  -33.0620 N.am   39  GLY39      -0.1939
     28  CA        23.5400  -22.9560  -34.4370 C.3    39  GLY39       0.2014
     29  C         22.7860  -23.9390  -35.3320 C.2    39  GLY39       0.2639
     30  O         23.0190  -23.9860  -36.5530 O.2    39  GLY39      -0.2714
     31  N         21.8870  -24.7190  -34.7240 N.am   40  LYS40      -0.1963
     32  CA        21.1650  -25.7940  -35.4080 C.3    40  LYS40       0.1728
     33  C         20.5640  -25.3340  -36.7340 C.2    40  LYS40       0.2617
     34  O         20.9460  -25.8180  -37.8070 O.2    40  LYS40      -0.2715
     35  CB        20.0630  -26.3610  -34.5090 C.3    40  LYS40       0.0311
     36  CG        20.5360  -26.9150  -33.1710 C.3    40  LYS40       0.0038
     37  CD        19.3780  -27.5060  -32.3600 C.3    40  LYS40       0.0206
     38  CE        18.4050  -26.4400  -31.8520 C.3    40  LYS40       0.1093
     39  NZ        19.0430  -25.5490  -30.8310 N.3    40  LYS40      -0.1314
     40  N         19.6310  -24.3850  -36.6410 N.am   41  SER41      -0.1936
     41  CA        18.9060  -23.8760  -37.7980 C.3    41  SER41       0.2055
     42  C         19.8560  -23.5410  -38.9470 C.2    41  SER41       0.2643
     43  O         19.6800  -24.0080  -40.0720 O.2    41  SER41      -0.2714
     44  CB        18.0890  -22.6560  -37.3970 C.3    41  SER41       0.2130
     45  OG        18.2920  -21.6060  -38.3260 O.3    41  SER41      -0.2179
     46  N         20.8770  -22.7510  -38.6290 N.am   42  THR42      -0.1950
     47  CA        21.8940  -22.3550  -39.5880 C.3    42  THR42       0.1897
     48  C         22.4970  -23.5650  -40.2650 C.2    42  THR42       0.2313
     49  O         22.6300  -23.5820  -41.4740 O.2    42  THR42      -0.2863
     50  CB        22.9880  -21.5150  -38.9180 C.3    42  THR42       0.1794
     51  OG1       22.3660  -20.5110  -38.1030 O.3    42  THR42      -0.2208
     52  CG2       23.8610  -20.8350  -39.9590 C.3    42  THR42       0.0378
     53  N         20.6710  -11.8630  -30.1100 N.3   142  SER142     -0.1202
     54  CA        21.1810  -12.5800  -31.2720 C.3   142  SER142      0.2020
     55  C         22.5870  -12.1250  -31.6280 C.2   142  SER142      0.2619
     56  O         22.9410  -10.9620  -31.4370 O.2   142  SER142     -0.2717
     57  CB        20.2530  -12.3950  -32.4730 C.3   142  SER142      0.2103
     58  OG        20.8370  -12.9250  -33.6500 O.3   142  SER142     -0.2182
     59  N         23.3760  -13.0580  -32.1500 N.am  143  ASP143     -0.1959
     60  CA        24.7850  -12.8190  -32.4510 C.3   143  ASP143      0.1840
     61  C         25.0430  -12.1370  -33.7900 C.2   143  ASP143      0.2622
     62  O         26.1780  -11.7540  -34.0820 O.2   143  ASP143     -0.2715
     63  CB        25.5810  -14.1230  -32.3610 C.3   143  ASP143      0.1450
     64  CG        26.1760  -14.3420  -30.9910 C.2   143  ASP143      0.3671
     65  OD1       26.2380  -13.3700  -30.2100 O.co2 143  ASP143     -0.2456
     66  OD2       26.5930  -15.4780  -30.6910 O.co2 143  ASP143     -0.2456
     67  N         24.0030  -11.9780  -34.6000 N.am  144  SER144     -0.1950
     68  CA        24.1700  -11.2910  -35.8700 C.3   144  SER144      0.1924
     69  C         23.3500  -10.0010  -35.9420 C.2   144  SER144      0.2314
     70  O         23.0450   -9.5090  -37.0340 O.2   144  SER144     -0.2863
     71  CB        23.8740  -12.2310  -37.0420 C.3   144  SER144      0.2116
     72  OG        22.6500  -12.9260  -36.8670 O.3   144  SER144     -0.2180
     73  N         21.2780  -16.9530  -44.0420 N.3   168  LEU168     -0.1231
     74  CA        21.9400  -17.7640  -43.0330 C.3   168  LEU168      0.1693
     75  C         21.8680  -17.2010  -41.5990 C.2   168  LEU168      0.2591
     76  O         22.4020  -17.8000  -40.6590 O.2   168  LEU168     -0.2718
     77  CB        23.3890  -18.0250  -43.4630 C.3   168  LEU168      0.0284
     78  CG        23.5040  -19.0960  -44.5530 C.3   168  LEU168      0.0019
     79  CD1       24.6270  -18.8040  -45.5430 C.3   168  LEU168      0.0001
     80  CD2       23.6560  -20.4830  -43.9340 C.3   168  LEU168      0.0001
     81  N         21.1960  -16.0680  -41.4230 N.am  169  ARG169     -0.1980
     82  CA        21.2120  -15.4160  -40.1190 C.3   169  ARG169      0.1597
     83  C         19.8420  -15.0670  -39.5140 C.2   169  ARG169      0.2287
     84  O         19.7070  -15.0080  -38.2860 O.2   169  ARG169     -0.2864
     85  CB        22.1370  -14.1970  -40.1460 C.3   169  ARG169      0.0334
     86  CG        23.4610  -14.4630  -40.8260 C.3   169  ARG169      0.0492
     87  CD        24.4290  -13.3320  -40.6210 C.3   169  ARG169      0.2205
     88  NE        25.3540  -13.6160  -39.5290 N.pl3 169  ARG169     -0.0865
     89  CZ        26.6520  -13.8620  -39.6910 C.cat 169  ARG169      0.5346
     90  NH1       27.1900  -13.8480  -40.9060 N.pl3 169  ARG169      0.1354
     91  NH2       27.4130  -14.1140  -38.6330 N.pl3 169  ARG169      0.1354
     92  N         16.3090  -15.1280  -37.8480 N.3   171  ARG171     -0.1245
     93  CA        15.5340  -15.9940  -36.9800 C.3   171  ARG171      0.1563
     94  C         14.2380  -16.3080  -37.7020 C.2   171  ARG171      0.2260
     95  O         13.4160  -15.4200  -37.9240 O.2   171  ARG171     -0.2867
     96  CB        15.2570  -15.3090  -35.6350 C.3   171  ARG171      0.0307
     97  CG        14.5020  -16.1560  -34.6050 C.3   171  ARG171      0.0489
     98  CD        15.3310  -17.3290  -34.0940 C.3   171  ARG171      0.2205
     99  NE        15.2220  -18.4880  -34.9780 N.pl3 171  ARG171     -0.0865
    100  CZ        16.0370  -19.5430  -34.9570 C.cat 171  ARG171      0.5346
    101  NH1       17.0440  -19.6030  -34.0940 N.pl3 171  ARG171      0.1354
    102  NH2       15.8460  -20.5430  -35.8110 N.pl3 171  ARG171      0.1354
    103  N         15.0880  -31.0800  -36.2100 N.3   193  ASP193     -0.1239
    104  CA        15.2340  -29.9250  -35.3330 C.3   193  ASP193      0.1674
    105  C         13.9520  -29.6560  -34.5610 C.2   193  ASP193      0.2266
    106  O         12.8770  -29.5260  -35.1490 O.2   193  ASP193     -0.2867
    107  CB        15.6010  -28.7030  -36.1680 C.3   193  ASP193      0.1410
    108  CG        16.0540  -27.5240  -35.3380 C.2   193  ASP193      0.3668
    109  OD1       16.7470  -26.6610  -35.9150 O.co2 193  ASP193     -0.2456
    110  OD2       15.7320  -27.4430  -34.1310 O.co2 193  ASP193     -0.2456
    111  N         30.4150  -24.9850  -31.8710 N.3   262  ASN262     -0.1225
    112  CA        30.1090  -23.9140  -32.7800 C.3   262  ASN262      0.1785
    113  C         30.5150  -22.5400  -32.2540 C.2   262  ASN262      0.2597
    114  O         30.9450  -22.4040  -31.1090 O.2   262  ASN262     -0.2718
    115  CB        28.6210  -23.9640  -33.1110 C.3   262  ASN262      0.1169
    116  CG        28.3000  -23.3770  -34.4760 C.2   262  ASN262      0.2627
    117  OD1       29.1070  -23.4330  -35.4160 O.2   262  ASN262     -0.2716
    118  ND2       27.1080  -22.8020  -34.5880 N.am  262  ASN262     -0.0877
    119  N         30.3770  -21.5290  -33.1150 N.am  263  LYS263     -0.1980
    120  CA        30.7260  -20.1380  -32.8070 C.3   263  LYS263      0.1596
    121  C         32.1660  -20.0250  -32.2890 C.2   263  LYS263      0.2287
    122  O         32.4440  -19.3780  -31.2810 O.2   263  LYS263     -0.2864
    123  CB        29.6940  -19.4920  -31.8710 C.3   263  LYS263      0.0298
    124  CG        28.2640  -19.6270  -32.3530 C.3   263  LYS263      0.0038
    125  CD        27.3710  -18.5490  -31.7810 C.3   263  LYS263      0.0206
    126  CE        25.9730  -18.6290  -32.3660 C.3   263  LYS263      0.1093
    127  NZ        25.1140  -17.4490  -32.0560 N.3   263  LYS263     -0.1314
    128  N         34.6170  -18.8450  -34.3510 N.3   265  ASP265     -0.1225
    129  CA        35.0740  -17.5830  -34.9270 C.3   265  ASP265      0.1805
    130  C         34.7930  -16.4640  -33.9440 C.2   265  ASP265      0.2597
    131  O         35.4900  -15.4470  -33.9190 O.2   265  ASP265     -0.2718
    132  CB        34.3520  -17.3040  -36.2420 C.3   265  ASP265      0.1424
    133  CG        32.8570  -17.0660  -36.0500 C.2   265  ASP265      0.3668
    134  OD1       32.1730  -17.9520  -35.4870 O.co2 265  ASP265     -0.2456
    135  OD2       32.3680  -15.9860  -36.4550 O.co2 265  ASP265     -0.2456
    136  N         33.7620  -16.6590  -33.1340 N.am  266  LEU266     -0.1979
    137  CA        33.4200  -15.6890  -32.1250 C.3   266  LEU266      0.1596
    138  C         34.2440  -15.9260  -30.8720 C.2   266  LEU266      0.2287
    139  O         34.4610  -15.0070  -30.0830 O.2   266  LEU266     -0.2864
    140  CB        31.9270  -15.7410  -31.8220 C.3   266  LEU266      0.0297
    141  CG        30.9690  -15.2840  -32.9240 C.3   266  LEU266      0.0022
    142  CD1       29.5390  -15.4570  -32.4600 C.3   266  LEU266      0.0001
    143  CD2       31.2210  -13.8450  -33.3280 C.3   266  LEU266      0.0001
    144  N         32.4530  -23.2340  -37.4610 N.3   318  CYS318     -0.1221
    145  CA        31.7690  -21.9620  -37.6570 C.3   318  CYS318      0.1808
    146  C         30.5770  -22.1790  -38.5950 C.2   318  CYS318      0.2601
    147  O         30.7430  -22.3560  -39.8060 O.2   318  CYS318     -0.2717
    148  CB        32.7100  -20.9050  -38.2220 C.3   318  CYS318      0.0970
    149  SG        31.8430  -19.4000  -38.6910 S.3   318  CYS318     -0.0800
    150  N         29.3750  -22.1720  -38.0250 N.am  319  ALA319     -0.1965
    151  CA        28.1680  -22.5160  -38.7850 C.3   319  ALA319      0.1728
    152  C         27.8140  -21.5100  -39.8770 C.2   319  ALA319      0.2616
    153  O         27.1050  -21.8600  -40.8260 O.2   319  ALA319     -0.2715
    154  CB        26.9890  -22.7510  -37.8640 C.3   319  ALA319      0.0334
    155  N         28.3070  -20.2770  -39.7510 N.am  320  THR320     -0.1951
    156  CA        28.1330  -19.2930  -40.8200 C.3   320  THR320      0.1897
    157  C         29.0470  -19.5670  -42.0390 C.2   320  THR320      0.2313
    158  O         28.7540  -19.1210  -43.1520 O.2   320  THR320     -0.2863
    159  CB        28.2580  -17.8250  -40.3190 C.3   320  THR320      0.1794
    160  OG1       29.5340  -17.6140  -39.7080 O.3   320  THR320     -0.2208
    161  CG2       27.1480  -17.5020  -39.3260 C.3   320  THR320      0.0378
@<TRIPOS>BOND
     1    79    78    1
     2    78    80    1
     3    78    77    1
     4    73    74    1
     5    77    74    1
     6   158   157    2
     7    74    75    1
     8   157   156    1
     9    75    81   am
    10    75    76    2
    11    49    48    2
    12    81    82    1
    13    90    89    1
    14    86    87    1
    15    86    85    1
    16   153   152    2
    17   156   159    1
    18   156   155    1
    19    87    88    1
    20   159   160    1
    21   159   161    1
    22    48    47    1
    23    85    82    1
    24    82    83    1
    25    43    42    2
    26    52    50    1
    27   152   155   am
    28   152   151    1
    29   147   146    2
    30    89    88    2
    31    89    91    1
    32    47    50    1
    33    47    46    1
    34    83    84    2
    35    42    46   am
    36    42    41    1
    37    50    51    1
    38   151   150    1
    39   151   154    1
    40   149   148    1
    41   146   150   am
    42   146   145    1
    43    45    44    1
    44   148   145    1
    45    95    94    2
    46    92    93    1
    47    34    33    2
    48    41    44    1
    49    41    40    1
    50    94    93    1
    51   145   144    1
    52    71    72    1
    53    71    68    1
    54    70    69    2
    55    93    96    1
    56    33    40   am
    57    33    32    1
    58    30    29    2
    59   135   133   ar
    60   132   133    1
    61   132   129    1
    62   103   104    1
    63   107   108    1
    64   107   104    1
    65   133   134   ar
    66    69    68    1
    67   109   108   ar
    68    68    67    1
    69   102   100    1
    70    96    97    1
    71   117   116    2
    72    32    31    1
    73    32    35    1
    74   108   110   ar
    75   104   105    1
    76    29    31   am
    77    29    28    1
    78   106   105    2
    79    99   100    2
    80    99    98    1
    81   100   101    1
    82   129   128    1
    83   129   130    1
    84    97    98    1
    85    67    61   am
    86   118   116   am
    87    35    36    1
    88   116   115    1
    89    28    27    1
    90    62    61    2
    91   130   131    2
    92   130   136   am
    93    61    60    1
    94    58    57    1
    95   143   141    1
    96    36    37    1
    97   136   137    1
    98   119   120    1
    99   119   113   am
   100   115   112    1
   101    27    23   am
   102   141   142    1
   103   141   140    1
   104   120   121    1
   105   120   123    1
   106   112   113    1
   107   112   111    1
   108    57    54    1
   109    60    63    1
   110    60    59    1
   111   126   127    1
   112   126   125    1
   113    63    64    1
   114    37    38    1
   115   124   123    1
   116   124   125    1
   117   121   122    2
   118   113   114    2
   119    59    55   am
   120   137   140    1
   121   137   138    1
   122    24    23    2
   123    23    22    1
   124    38    39    1
   125    55    56    2
   126    55    54    1
   127    19    18   ar
   128    54    53    1
   129    20    18   ar
   130    18    17    1
   131    64    66   ar
   132    64    65   ar
   133   138   139    2
   134    17    16    1
   135    15    14    2
   136    22    21    1
   137    22    25    1
   138    21    14   am
   139    14    13    1
   140    13    16    1
   141    13    12    1
   142    12    10   am
   143    26    25    1
   144     4     3    2
   145    10     9    1
   146    10    11    2
   147     9     8    1
   148     3     8   am
   149     3     2    1
   150     1     2    1
   151     2     5    1
   152     6     5    1
   153     5     7    1
