@<TRIPOS>MOLECULE
tmp/3ahcA00.pdb
 175 169 0 0 0
SMALL
GASTEIGER

@<TRIPOS>ATOM
      1  N         64.8310   44.8210   21.2910 N.3    60  HIS60      -0.1241
      2  CA        65.8430   45.5210   20.4350 C.3    60  HIS60       0.1621
      3  C         66.6240   46.5270   21.3280 C.2    60  HIS60       0.2264
      4  O         66.0410   47.4120   22.0030 O.2    60  HIS60      -0.2867
      5  CB        65.1290   46.3630   19.3770 C.3    60  HIS60       0.0745
      6  CG        64.3760   45.5470   18.3930 C.ar   60  HIS60       0.0817
      7  ND1       63.1510   44.9940   18.7590 N.ar   60  HIS60      -0.2268
      8  CD2       64.7170   45.0130   17.1880 C.ar   60  HIS60       0.1154
      9  CE1       62.7230   44.2380   17.7390 C.ar   60  HIS60       0.1986
     10  NE2       63.6430   44.2360   16.7840 N.ar   60  HIS60      -0.2212
     11  N         68.7400   50.7310   19.0780 N.3    63  THR63      -0.1218
     12  CA        68.2520   52.1490   19.0960 C.3    63  THR63       0.1862
     13  C         68.1530   52.7350   20.5230 C.2    63  THR63       0.2287
     14  O         68.2050   53.9470   20.7070 O.2    63  THR63      -0.2866
     15  CB        66.8760   52.1610   18.3890 C.3    63  THR63       0.1770
     16  OG1       66.5450   53.5340   18.0080 O.3    63  THR63      -0.2211
     17  CG2       65.6920   51.5480   19.2370 C.3    63  THR63       0.0375
     18  N         61.7210   54.9900   15.7220 N.3    91  PRO91      -0.2116
     19  CA        62.2220   53.6230   15.8660 C.3    91  PRO91       0.1372
     20  C         61.4310   52.9430   17.0180 C.2    91  PRO91       0.2244
     21  O         61.9070   52.8390   18.1840 O.2    91  PRO91      -0.2868
     22  CB        63.7340   53.8270   16.2540 C.3    91  PRO91       0.0268
     23  CG        64.0310   55.3900   15.9940 C.3    91  PRO91       0.0207
     24  CD        62.6430   56.0460   16.2450 C.3    91  PRO91       0.0892
     25  N         60.5640   50.0670   17.6990 N.3    93  HIS93      -0.1241
     26  CA        61.1560   48.8770   18.3070 C.3    93  HIS93       0.1621
     27  C         62.0260   49.2220   19.5450 C.2    93  HIS93       0.2264
     28  O         62.4670   48.3490   20.2960 O.2    93  HIS93      -0.2867
     29  CB        61.9850   48.0870   17.2990 C.3    93  HIS93       0.0745
     30  CG        62.9540   48.9640   16.5480 C.ar   93  HIS93       0.0817
     31  ND1       62.5200   49.8010   15.5340 N.ar   93  HIS93      -0.2268
     32  CD2       64.3040   49.1040   16.6490 C.ar   93  HIS93       0.1154
     33  CE1       63.6010   50.4630   15.0510 C.ar   93  HIS93       0.1986
     34  NE2       64.6960   50.0140   15.6840 N.ar   93  HIS93      -0.2212
     35  N         57.2060   46.9250   21.2040 N.3   138  HIS138     -0.1241
     36  CA        57.2690   48.2360   20.5540 C.3   138  HIS138      0.1621
     37  C         56.5920   49.2700   21.5010 C.2   138  HIS138      0.2264
     38  O         55.9670   48.9240   22.5260 O.2   138  HIS138     -0.2867
     39  CB        56.5700   48.2230   19.1590 C.3   138  HIS138      0.0745
     40  CG        57.4420   47.6410   18.0860 C.ar  138  HIS138      0.0817
     41  ND1       58.0680   46.3950   18.2170 N.ar  138  HIS138     -0.2268
     42  CD2       57.9380   48.1930   16.9390 C.ar  138  HIS138      0.1154
     43  CE1       58.7990   46.1670   17.1290 C.ar  138  HIS138      0.1986
     44  NE2       58.7540   47.2420   16.3540 N.ar  138  HIS138     -0.2212
     45  N         56.0290   50.5060   14.4860 N.3   151  GLY151     -0.1210
     46  CA        56.3890   49.0990   14.0730 C.3   151  GLY151      0.1956
     47  C         56.6190   49.0470   12.5780 C.2   151  GLY151      0.2612
     48  O         57.7090   48.6120   12.1470 O.2   151  GLY151     -0.2717
     49  N         55.6530   49.5440   11.8120 N.am  152  GLU152     -0.1965
     50  CA        55.8480   49.7130   10.3630 C.3   152  GLU152      0.1733
     51  C         56.4510   51.1550   10.2040 C.2   152  GLU152      0.2616
     52  O         55.7300   52.1740   10.5510 O.2   152  GLU152     -0.2715
     53  CB        54.4980   49.6790    9.6670 C.3   152  GLU152      0.0429
     54  CG        54.7120   49.6450    8.1240 C.3   152  GLU152      0.1163
     55  CD        53.3860   49.5010    7.3900 C.2   152  GLU152      0.3649
     56  OE1       52.9390   50.4090    6.6760 O.co2 152  GLU152     -0.2457
     57  OE2       52.7140   48.4150    7.5690 O.co2 152  GLU152     -0.2457
     58  N         57.7270   51.1430    9.7810 N.am  153  LEU153     -0.1977
     59  CA        58.4440   52.4580    9.7900 C.3   153  LEU153      0.1596
     60  C         57.9690   53.3400    8.6590 C.2   153  LEU153      0.2287
     61  O         57.5380   52.8820    7.5950 O.2   153  LEU153     -0.2864
     62  CB        59.9610   52.1560    9.6130 C.3   153  LEU153      0.0297
     63  CG        60.5390   51.3570   10.7750 C.3   153  LEU153      0.0022
     64  CD1       62.0240   50.9420   10.4900 C.3   153  LEU153      0.0001
     65  CD2       60.4550   52.1850   12.1410 C.3   153  LEU153      0.0001
     66  N         56.2230   56.6560    9.1240 N.3   155  TYR155     -0.1241
     67  CA        55.1370   57.6350    9.3350 C.3   155  TYR155      0.1605
     68  C         55.4200   58.6260   10.4770 C.2   155  TYR155      0.2264
     69  O         54.5310   59.3170   10.9430 O.2   155  TYR155     -0.2867
     70  CB        53.7520   56.8830    9.6520 C.3   155  TYR155      0.0534
     71  CG        53.6500   55.7290    8.6140 C.ar  155  TYR155     -0.0201
     72  CD1       53.6810   56.0480    7.2460 C.ar  155  TYR155     -0.0009
     73  CD2       53.5580   54.4760    9.0450 C.ar  155  TYR155     -0.0009
     74  CE1       53.7210   54.9900    6.2410 C.ar  155  TYR155      0.0417
     75  CE2       53.5640   53.4160    8.1090 C.ar  155  TYR155      0.0417
     76  CZ        53.7020   53.6930    6.7440 C.ar  155  TYR155      0.1957
     77  OH        53.7770   52.5940    5.8730 O.3   155  TYR155     -0.2866
     78  N         64.2440   57.1860   12.7330 N.3   177  GLY177     -0.1210
     79  CA        65.3550   56.2280   12.4630 C.3   177  GLY177      0.1956
     80  C         66.1220   56.6520   11.1780 C.2   177  GLY177      0.2612
     81  O         65.5470   57.1330   10.2190 O.2   177  GLY177     -0.2717
     82  N         67.4420   56.4000   11.1600 N.am  178  ASP178     -0.1959
     83  CA        68.1350   56.7410    9.8940 C.3   178  ASP178      0.1840
     84  C         67.8420   55.6790    8.8060 C.2   178  ASP178      0.2623
     85  O         67.8120   55.9530    7.5980 O.2   178  ASP178     -0.2715
     86  CB        69.6550   57.0540   10.0970 C.3   178  ASP178      0.1450
     87  CG        70.4890   55.9420   10.7350 C.2   178  ASP178      0.3671
     88  OD1       69.9170   54.9980   11.3510 O.co2 178  ASP178     -0.2456
     89  OD2       71.7330   55.9870   10.7440 O.co2 178  ASP178     -0.2456
     90  N         67.5210   54.4600    9.2580 N.am  179  GLY179     -0.1940
     91  CA        66.9910   53.4200    8.3290 C.3   179  GLY179      0.2014
     92  C         65.5320   53.7850    7.8870 C.2   179  GLY179      0.2638
     93  O         65.1950   53.8340    6.6850 O.2   179  GLY179     -0.2714
     94  N         64.7390   54.1940    8.8740 N.am  180  GLU180     -0.1977
     95  CA        63.3630   54.6940    8.5590 C.3   180  GLU180      0.1602
     96  C         63.3930   55.8230    7.5120 C.2   180  GLU180      0.2287
     97  O         62.5480   55.9460    6.6490 O.2   180  GLU180     -0.2864
     98  CB        62.7450   55.2420    9.8640 C.3   180  GLU180      0.0415
     99  CG        61.4110   55.9220    9.6240 C.3   180  GLU180      0.1163
    100  CD        60.6710   56.2100   10.9220 C.2   180  GLU180      0.3649
    101  OE1       61.3370   56.5920   11.8960 O.co2 180  GLU180     -0.2457
    102  OE2       59.4400   56.3070   10.8260 O.co2 180  GLU180     -0.2457
    103  N         62.8100   55.1550    3.8570 N.3   183  THR183     -0.1274
    104  CA        61.4390   54.8090    3.2850 C.3   183  THR183      0.1548
    105  C         60.8880   55.9550    2.4880 C.3   183  THR183      0.2036
    106  O         61.2550   57.1770    2.6860 O.3   183  THR183     -0.2187
    107  CB        60.4020   54.4780    4.4360 C.3   183  THR183      0.1721
    108  OG1       60.1490   55.6470    5.2300 O.3   183  THR183     -0.2215
    109  CG2       60.9640   53.3610    5.3110 C.3   183  THR183      0.0371
    110  N         67.8980   60.1330   14.1360 N.3   209  HIS209     -0.1241
    111  CA        68.6190   59.3050   15.0800 C.3   209  HIS209      0.1621
    112  C         69.6740   58.5960   14.2120 C.2   209  HIS209      0.2264
    113  O         69.5690   57.4610   13.6940 O.2   209  HIS209     -0.2867
    114  CB        67.6520   58.3350   15.7250 C.3   209  HIS209      0.0745
    115  CG        68.3010   57.4510   16.7690 C.ar  209  HIS209      0.0817
    116  ND1       69.6070   57.5760   17.2220 N.ar  209  HIS209     -0.2268
    117  CD2       67.7360   56.4550   17.5320 C.ar  209  HIS209      0.1154
    118  CE1       69.8330   56.6770   18.1680 C.ar  209  HIS209      0.1986
    119  NE2       68.7070   55.9720   18.3640 N.ar  209  HIS209     -0.2212
    120  N         72.3580   56.8290   13.9500 N.3   211  ASN211     -0.1240
    121  CA        73.2670   55.9000   14.6530 C.3   211  ASN211      0.1653
    122  C         74.0700   55.0060   13.7240 C.2   211  ASN211      0.2266
    123  O         74.8060   54.1060   14.1770 O.2   211  ASN211     -0.2867
    124  CB        72.4460   55.0700   15.7290 C.3   211  ASN211      0.1155
    125  CG        71.3450   54.1940   15.1050 C.2   211  ASN211      0.2627
    126  OD1       71.2560   54.0220   13.8770 O.2   211  ASN211     -0.2716
    127  ND2       70.4610   53.7020   15.9890 N.am  211  ASN211     -0.0877
    128  N         73.3300   52.8580   11.2710 N.3   213  TYR213     -0.1227
    129  CA        72.9840   51.5090   10.8250 C.3   213  TYR213      0.1736
    130  C         71.4960   51.2900   10.9470 C.2   213  TYR213      0.2595
    131  O         70.7700   51.9190   11.7300 O.2   213  TYR213     -0.2718
    132  CB        73.6380   50.4390   11.7780 C.3   213  TYR213      0.0548
    133  CG        75.1540   50.5490   11.5910 C.ar  213  TYR213     -0.0200
    134  CD1       75.7530   49.9450   10.4350 C.ar  213  TYR213     -0.0009
    135  CD2       75.8910   51.3350   12.4660 C.ar  213  TYR213     -0.0009
    136  CE1       77.1940   50.1740   10.2340 C.ar  213  TYR213      0.0417
    137  CE2       77.3000   51.5560   12.2690 C.ar  213  TYR213      0.0417
    138  CZ        77.8730   50.9590   11.1330 C.ar  213  TYR213      0.1957
    139  OH        79.2220   51.1990   10.8540 O.3   213  TYR213     -0.2866
    140  N         71.0920   50.2970   10.1750 N.am  214  LYS214     -0.1966
    141  CA        69.6730   49.7260   10.2890 C.3   214  LYS214      0.1728
    142  C         69.9250   48.2640   10.7700 C.2   214  LYS214      0.2616
    143  O         70.7440   48.0690   11.7210 O.2   214  LYS214     -0.2715
    144  CB        68.8850   49.9710    8.9890 C.3   214  LYS214      0.0311
    145  CG        69.6840   49.6870    7.6030 C.3   214  LYS214      0.0038
    146  CD        68.7360   50.0920    6.4690 C.3   214  LYS214      0.0206
    147  CE        69.3060   49.6630    5.1050 C.3   214  LYS214      0.1093
    148  NZ        70.4260   50.6280    4.6640 N.3   214  LYS214     -0.1314
    149  N         69.2110   47.2560   10.2230 N.am  215  ILE215     -0.1977
    150  CA        69.3650   45.9160   10.8310 C.3   215  ILE215      0.1596
    151  C         70.6860   45.2530   10.5080 C.2   215  ILE215      0.2287
    152  O         71.3710   44.7160   11.3830 O.2   215  ILE215     -0.2864
    153  CB        68.2070   44.9430   10.2840 C.3   215  ILE215      0.0276
    154  CG1       66.8580   45.4400   10.7570 C.3   215  ILE215      0.0022
    155  CG2       68.4890   43.4860   10.7800 C.3   215  ILE215      0.0022
    156  CD1       65.6120   44.4730   10.1640 C.3   215  ILE215      0.0001
    157  N         75.4340   53.2190   17.3660 N.3   296  LYS296     -0.1245
    158  CA        74.3010   52.2880   17.6500 C.3   296  LYS296      0.1561
    159  C         74.6070   51.3600   18.8080 C.2   296  LYS296      0.2260
    160  O         75.7380   50.8380   18.9460 O.2   296  LYS296     -0.2867
    161  CB        74.0130   51.5190   16.3800 C.3   296  LYS296      0.0271
    162  CG        72.6250   50.7930   16.5210 C.3   296  LYS296      0.0035
    163  CD        72.0710   50.4490   15.1030 C.3   296  LYS296      0.0206
    164  CE        70.7980   49.5580   15.3670 C.3   296  LYS296      0.1093
    165  NZ        69.9980   49.4760   14.0650 N.3   296  LYS296     -0.1314
    166  N         71.6750   45.7640   16.7440 N.3   316  HIS316     -0.1241
    167  CA        70.2630   46.0870   16.4600 C.3   316  HIS316      0.1621
    168  C         69.2040   45.3720   17.3950 C.2   316  HIS316      0.2264
    169  O         68.3290   46.0750   17.9300 O.2   316  HIS316     -0.2867
    170  CB        69.8990   45.7120   14.9930 C.3   316  HIS316      0.0745
    171  CG        68.5050   46.0930   14.6390 C.ar  316  HIS316      0.0817
    172  ND1       68.0750   47.4120   14.5780 N.ar  316  HIS316     -0.2268
    173  CD2       67.3860   45.3260   14.4330 C.ar  316  HIS316      0.1154
    174  CE1       66.7810   47.4620   14.3070 C.ar  316  HIS316      0.1986
    175  NE2       66.3450   46.2040   14.2100 N.ar  316  HIS316     -0.2212
@<TRIPOS>BOND
     1   105   106    1
     2   105   104    1
     3   104   103    1
     4   104   107    1
     5   107   108    1
     6   107   109    1
     7   148   147    1
     8   147   146    1
     9    77    76    1
    10    74    76   ar
    11    74    72   ar
    12   146   145    1
    13    97    96    2
    14    56    55   ar
    15    93    92    2
    16    76    75   ar
    17    72    71   ar
    18    55    57   ar
    19    55    54    1
    20    96    95    1
    21    61    60    2
    22    85    84    2
    23   145   144    1
    24    92    91    1
    25    92    94   am
    26    75    73   ar
    27    54    53    1
    28    91    90    1
    29    95    94    1
    30    95    98    1
    31    71    73   ar
    32    71    70    1
    33    60    59    1
    34    84    90   am
    35    84    83    1
    36   144   141    1
    37    66    67    1
    38    67    70    1
    39    67    68    1
    40    62    59    1
    41    62    63    1
    42    99    98    1
    43    99   100    1
    44    53    50    1
    45    58    59    1
    46    58    51   am
    47    83    86    1
    48    83    82    1
    49    86    87    1
    50   156   154    1
    51   140   141    1
    52   140   130   am
    53    51    50    1
    54    51    52    2
    55    81    80    2
    56   149   142   am
    57   149   150    1
    58   136   134   ar
    59   136   138   ar
    60   153   154    1
    61   153   155    1
    62   153   150    1
    63   141   142    1
    64    50    49    1
    65   134   133   ar
    66    68    69    2
    67    64    63    1
    68   151   150    1
    69   151   152    2
    70    87    89   ar
    71    87    88   ar
    72   142   143    2
    73    63    65    1
    74   129   130    1
    75   129   128    1
    76   129   132    1
    77   102   100   ar
    78   139   138    1
    79   100   101   ar
    80   130   131    2
    81   138   137   ar
    82    82    80   am
    83    80    79    1
    84   133   132    1
    85   133   135   ar
    86    49    47   am
    87    48    47    2
    88   137   135   ar
    89    79    78    1
    90    47    46    1
    91   113   112    2
    92   122   123    2
    93   122   121    1
    94   126   125    2
    95   120   121    1
    96   165   164    1
    97    46    45    1
    98   110   111    1
    99   175   174   ar
   100   175   173   ar
   101   112   111    1
   102   174   172   ar
   103   173   171   ar
   104   172   171   ar
   105   171   170    1
   106   121   124    1
   107   170   167    1
   108    33    31   ar
   109    33    34   ar
   110   111   114    1
   111   163   164    1
   112   163   162    1
   113   125   124    1
   114   125   127   am
   115    31    30   ar
   116    34    32   ar
   117    18    19    1
   118    18    24    1
   119   114   115    1
   120    19    22    1
   121    19    20    1
   122    23    24    1
   123    23    22    1
   124    44    42   ar
   125    44    43   ar
   126   161   162    1
   127   161   158    1
   128   167   166    1
   129   167   168    1
   130    30    32   ar
   131    30    29    1
   132   115   116   ar
   133   115   117   ar
   134    10     8   ar
   135    10     9   ar
   136    42    40   ar
   137    20    21    2
   138    43    41   ar
   139     8     6   ar
   140   116   118   ar
   141    29    26    1
   142   157   158    1
   143   168   169    2
   144   117   119   ar
   145   158   159    1
   146    25    26    1
   147     9     7   ar
   148    16    15    1
   149    40    41   ar
   150    40    39    1
   151   118   119   ar
   152    26    27    1
   153    15    12    1
   154    15    17    1
   155     6     7   ar
   156     6     5    1
   157   159   160    2
   158    11    12    1
   159    12    13    1
   160    39    36    1
   161     5     2    1
   162    27    28    2
   163     2     1    1
   164     2     3    1
   165    13    14    2
   166    36    35    1
   167    36    37    1
   168     3     4    2
   169    37    38    2
