@<TRIPOS>MOLECULE
tmp/3ahdA00.pdb
 175 169 0 0 0
SMALL
GASTEIGER

@<TRIPOS>ATOM
      1  N         64.8510   44.6600   21.1420 N.3    60  HIS60      -0.1241
      2  CA        65.7890   45.4210   20.3150 C.3    60  HIS60       0.1621
      3  C         66.5810   46.3780   21.2000 C.2    60  HIS60       0.2264
      4  O         66.0200   47.2810   21.7700 O.2    60  HIS60      -0.2867
      5  CB        65.0010   46.2180   19.3420 C.3    60  HIS60       0.0745
      6  CG        64.2950   45.3840   18.3500 C.ar   60  HIS60       0.0817
      7  ND1       63.0520   44.8190   18.6200 N.ar   60  HIS60      -0.2268
      8  CD2       64.6950   44.8940   17.1480 C.ar   60  HIS60       0.1154
      9  CE1       62.6710   44.1230   17.5490 C.ar   60  HIS60       0.1986
     10  NE2       63.6470   44.1500   16.6530 N.ar   60  HIS60      -0.2212
     11  N         68.6440   50.5960   19.0910 N.3    63  THR63      -0.1218
     12  CA        68.1040   51.9540   19.0760 C.3    63  THR63       0.1862
     13  C         67.9930   52.5680   20.5050 C.2    63  THR63       0.2287
     14  O         68.0100   53.8200   20.7140 O.2    63  THR63      -0.2866
     15  CB        66.7500   51.9970   18.3460 C.3    63  THR63       0.1770
     16  OG1       66.3850   53.3640   18.0560 O.3    63  THR63      -0.2211
     17  CG2       65.5360   51.3560   19.2080 C.3    63  THR63       0.0375
     18  N         61.5940   54.8230   15.7150 N.3    91  PRO91      -0.2116
     19  CA        62.0140   53.4440   15.8590 C.3    91  PRO91       0.1372
     20  C         61.2210   52.7480   17.0060 C.2    91  PRO91       0.2244
     21  O         61.7530   52.6020   18.1150 O.2    91  PRO91      -0.2868
     22  CB        63.5210   53.5600   16.2300 C.3    91  PRO91       0.0268
     23  CG        63.8720   55.0860   16.0000 C.3    91  PRO91       0.0207
     24  CD        62.6010   55.8180   16.1770 C.3    91  PRO91       0.0892
     25  N         60.3430   49.9250   17.6710 N.3    93  HIS93      -0.1241
     26  CA        60.9370   48.7430   18.2820 C.3    93  HIS93       0.1621
     27  C         61.7730   49.0700   19.5000 C.2    93  HIS93       0.2264
     28  O         62.2020   48.1480   20.2220 O.2    93  HIS93      -0.2867
     29  CB        61.7630   47.9380   17.2960 C.3    93  HIS93       0.0745
     30  CG        62.7320   48.7730   16.5160 C.ar   93  HIS93       0.0817
     31  ND1       62.3180   49.6030   15.4890 N.ar   93  HIS93      -0.2268
     32  CD2       64.0830   48.8880   16.6000 C.ar   93  HIS93       0.1154
     33  CE1       63.3900   50.2080   14.9750 C.ar   93  HIS93       0.1986
     34  NE2       64.4700   49.7920   15.6310 N.ar   93  HIS93      -0.2212
     35  N         57.0660   46.7580   21.1060 N.3   138  HIS138     -0.1241
     36  CA        57.0920   48.0850   20.5110 C.3   138  HIS138      0.1621
     37  C         56.3980   49.1020   21.4270 C.2   138  HIS138      0.2264
     38  O         55.6810   48.7480   22.3990 O.2   138  HIS138     -0.2867
     39  CB        56.4000   48.1250   19.1540 C.3   138  HIS138      0.0745
     40  CG        57.2390   47.5950   18.0390 C.ar  138  HIS138      0.0817
     41  ND1       57.7470   46.3050   18.0370 N.ar  138  HIS138     -0.2268
     42  CD2       57.7330   48.2050   16.9140 C.ar  138  HIS138      0.1154
     43  CE1       58.5110   46.1330   16.9550 C.ar  138  HIS138      0.1986
     44  NE2       58.4890   47.2590   16.2410 N.ar  138  HIS138     -0.2212
     45  N         55.7970   50.3960   14.3790 N.3   151  GLY151     -0.1210
     46  CA        56.0530   48.9460   14.0370 C.3   151  GLY151      0.1956
     47  C         56.3810   48.8970   12.5430 C.2   151  GLY151      0.2612
     48  O         57.4550   48.4160   12.1410 O.2   151  GLY151     -0.2717
     49  N         55.4760   49.4220   11.7400 N.am  152  GLU152     -0.1965
     50  CA        55.6820   49.5300   10.3090 C.3   152  GLU152      0.1733
     51  C         56.2950   50.9510   10.1670 C.2   152  GLU152      0.2616
     52  O         55.6140   51.9560   10.4380 O.2   152  GLU152     -0.2715
     53  CB        54.3880   49.5400    9.5770 C.3   152  GLU152      0.0429
     54  CG        54.6070   49.5260    8.0080 C.3   152  GLU152      0.1163
     55  CD        53.2520   49.3240    7.3070 C.2   152  GLU152      0.3649
     56  OE1       52.8040   50.2700    6.6030 O.co2 152  GLU152     -0.2457
     57  OE2       52.5540   48.2380    7.5440 O.co2 152  GLU152     -0.2457
     58  N         57.5830   50.9860    9.8530 N.am  153  LEU153     -0.1977
     59  CA        58.3120   52.2740    9.8070 C.3   153  LEU153      0.1596
     60  C         57.8560   53.1740    8.6850 C.2   153  LEU153      0.2287
     61  O         57.4390   52.7060    7.6020 O.2   153  LEU153     -0.2864
     62  CB        59.8430   51.9950    9.6720 C.3   153  LEU153      0.0297
     63  CG        60.3820   51.1780   10.8220 C.3   153  LEU153      0.0022
     64  CD1       61.7720   50.7460   10.5650 C.3   153  LEU153      0.0001
     65  CD2       60.3220   51.9550   12.1830 C.3   153  LEU153      0.0001
     66  N         56.0720   56.4340    9.1520 N.3   155  TYR155     -0.1241
     67  CA        55.0050   57.4450    9.3080 C.3   155  TYR155      0.1605
     68  C         55.2910   58.4650   10.4300 C.2   155  TYR155      0.2264
     69  O         54.3820   59.1950   10.9020 O.2   155  TYR155     -0.2867
     70  CB        53.6120   56.7590    9.5570 C.3   155  TYR155      0.0534
     71  CG        53.4830   55.6150    8.5430 C.ar  155  TYR155     -0.0201
     72  CD1       53.5020   55.8900    7.1870 C.ar  155  TYR155     -0.0009
     73  CD2       53.5540   54.3040    8.9700 C.ar  155  TYR155     -0.0009
     74  CE1       53.4630   54.8080    6.2060 C.ar  155  TYR155      0.0417
     75  CE2       53.5130   53.2180    8.0520 C.ar  155  TYR155      0.0417
     76  CZ        53.5150   53.4980    6.6850 C.ar  155  TYR155      0.1957
     77  OH        53.5020   52.4930    5.7690 O.3   155  TYR155     -0.2866
     78  N         64.1290   56.9770   12.7690 N.3   177  GLY177     -0.1210
     79  CA        65.2820   56.0500   12.5380 C.3   177  GLY177      0.1956
     80  C         66.0610   56.4880   11.2380 C.2   177  GLY177      0.2612
     81  O         65.4630   57.0200   10.2990 O.2   177  GLY177     -0.2717
     82  N         67.3620   56.2560   11.1770 N.am  178  ASP178     -0.1959
     83  CA        68.0170   56.5820    9.9170 C.3   178  ASP178      0.1840
     84  C         67.6960   55.5270    8.8270 C.2   178  ASP178      0.2623
     85  O         67.6910   55.8180    7.6350 O.2   178  ASP178     -0.2715
     86  CB        69.5220   56.8800   10.1200 C.3   178  ASP178      0.1450
     87  CG        70.3010   55.7760   10.7980 C.2   178  ASP178      0.3671
     88  OD1       69.7110   54.8240   11.3810 O.co2 178  ASP178     -0.2456
     89  OD2       71.5460   55.8640   10.7480 O.co2 178  ASP178     -0.2456
     90  N         67.3830   54.2930    9.2690 N.am  179  GLY179     -0.1940
     91  CA        66.8200   53.2590    8.2970 C.3   179  GLY179      0.2014
     92  C         65.4350   53.7060    7.8960 C.2   179  GLY179      0.2638
     93  O         65.0760   53.7440    6.7180 O.2   179  GLY179     -0.2714
     94  N         64.6560   54.0630    8.8870 N.am  180  GLU180     -0.1977
     95  CA        63.3110   54.5880    8.6080 C.3   180  GLU180      0.1602
     96  C         63.2960   55.6930    7.5410 C.2   180  GLU180      0.2287
     97  O         62.3950   55.8320    6.7260 O.2   180  GLU180     -0.2864
     98  CB        62.6620   55.0500    9.9350 C.3   180  GLU180      0.0415
     99  CG        61.3370   55.7500    9.6700 C.3   180  GLU180      0.1163
    100  CD        60.5610   56.1100   10.9510 C.2   180  GLU180      0.3649
    101  OE1       61.1920   56.3480   12.0120 O.co2 180  GLU180     -0.2457
    102  OE2       59.3230   56.2210   10.8400 O.co2 180  GLU180     -0.2457
    103  N         62.6520   54.9550    3.8410 N.3   183  THR183     -0.1274
    104  CA        61.2850   54.6650    3.2740 C.3   183  THR183      0.1548
    105  C         60.7050   55.8000    2.4900 C.3   183  THR183      0.2036
    106  O         61.0420   57.0150    2.7460 O.3   183  THR183     -0.2187
    107  CB        60.2940   54.3250    4.4380 C.3   183  THR183      0.1721
    108  OG1       60.0020   55.4570    5.2250 O.3   183  THR183     -0.2215
    109  CG2       60.8680   53.2320    5.3160 C.3   183  THR183      0.0371
    110  N         67.7600   60.0580   14.1570 N.3   209  HIS209     -0.1241
    111  CA        68.4990   59.1720   15.0810 C.3   209  HIS209      0.1621
    112  C         69.5390   58.4410   14.2200 C.2   209  HIS209      0.2264
    113  O         69.4280   57.2690   13.7550 O.2   209  HIS209     -0.2867
    114  CB        67.5000   58.2270   15.8180 C.3   209  HIS209      0.0745
    115  CG        68.1270   57.3000   16.8200 C.ar  209  HIS209      0.0817
    116  ND1       69.4280   57.4110   17.2230 N.ar  209  HIS209     -0.2268
    117  CD2       67.6030   56.2480   17.5190 C.ar  209  HIS209      0.1154
    118  CE1       69.6900   56.5000   18.1360 C.ar  209  HIS209      0.1986
    119  NE2       68.5940   55.7780   18.3370 N.ar  209  HIS209     -0.2212
    120  N         72.1360   56.6500   13.9260 N.3   211  ASN211     -0.1240
    121  CA        73.0880   55.7450   14.6290 C.3   211  ASN211      0.1653
    122  C         73.9220   54.8780   13.7220 C.2   211  ASN211      0.2266
    123  O         74.6580   53.9880   14.2010 O.2   211  ASN211     -0.2867
    124  CB        72.3260   54.9230   15.7360 C.3   211  ASN211      0.1155
    125  CG        71.2270   54.0670   15.1450 C.2   211  ASN211      0.2627
    126  OD1       71.1390   53.8810   13.8810 O.2   211  ASN211     -0.2716
    127  ND2       70.3380   53.5790   16.0140 N.am  211  ASN211     -0.0877
    128  N         73.1790   52.6750   11.2390 N.3   213  TYR213     -0.1227
    129  CA        72.8240   51.3260   10.8620 C.3   213  TYR213      0.1736
    130  C         71.3380   51.1050   10.9700 C.2   213  TYR213      0.2595
    131  O         70.5910   51.8020   11.7140 O.2   213  TYR213     -0.2718
    132  CB        73.5470   50.2440   11.7860 C.3   213  TYR213      0.0548
    133  CG        75.0180   50.4050   11.5810 C.ar  213  TYR213     -0.0200
    134  CD1       75.6470   49.8580   10.4350 C.ar  213  TYR213     -0.0009
    135  CD2       75.7410   51.2010   12.4260 C.ar  213  TYR213     -0.0009
    136  CE1       77.0590   50.0510   10.2080 C.ar  213  TYR213      0.0417
    137  CE2       77.1530   51.4490   12.2120 C.ar  213  TYR213      0.0417
    138  CZ        77.7730   50.8780   11.0730 C.ar  213  TYR213      0.1957
    139  OH        79.1280   51.1330   10.8400 O.3   213  TYR213     -0.2866
    140  N         70.8990   50.1400   10.1910 N.am  214  LYS214     -0.1966
    141  CA        69.5190   49.5710   10.3200 C.3   214  LYS214      0.1728
    142  C         69.7820   48.1260   10.7700 C.2   214  LYS214      0.2616
    143  O         70.6180   47.9220   11.7170 O.2   214  LYS214     -0.2715
    144  CB        68.7300   49.7470    9.0240 C.3   214  LYS214      0.0311
    145  CG        69.5840   49.5200    7.7180 C.3   214  LYS214      0.0038
    146  CD        68.6360   49.9370    6.5280 C.3   214  LYS214      0.0206
    147  CE        69.1270   49.5780    5.0590 C.3   214  LYS214      0.1093
    148  NZ        70.2370   50.5000    4.6470 N.3   214  LYS214     -0.1314
    149  N         69.0790   47.1170   10.2360 N.am  215  ILE215     -0.1977
    150  CA        69.2330   45.7870   10.7920 C.3   215  ILE215      0.1596
    151  C         70.5430   45.1480   10.4930 C.2   215  ILE215      0.2287
    152  O         71.1850   44.6010   11.4110 O.2   215  ILE215     -0.2864
    153  CB        68.0720   44.7450   10.3230 C.3   215  ILE215      0.0276
    154  CG1       66.7170   45.2740   10.6790 C.3   215  ILE215      0.0022
    155  CG2       68.4080   43.2660   10.9110 C.3   215  ILE215      0.0022
    156  CD1       65.5460   44.2440   10.2290 C.3   215  ILE215      0.0001
    157  N         75.3010   53.0840   17.3640 N.3   296  LYS296     -0.1301
    158  CA        74.1420   52.1480   17.6440 C.3   296  LYS296      0.1247
    159  C         74.4590   51.2360   18.7980 C.3   296  LYS296      0.2009
    160  O         75.6300   50.7050   18.9170 O.3   296  LYS296     -0.2188
    161  CB        73.8170   51.3840   16.3800 C.3   296  LYS296      0.0218
    162  CG        72.4790   50.6130   16.5060 C.3   296  LYS296      0.0031
    163  CD        71.8660   50.2900   15.1210 C.3   296  LYS296      0.0205
    164  CE        70.6560   49.3410   15.3780 C.3   296  LYS296      0.1093
    165  NZ        69.8430   49.3500   14.1140 N.3   296  LYS296     -0.1314
    166  N         71.6110   45.6300   16.8140 N.3   316  HIS316     -0.1241
    167  CA        70.2070   45.9330   16.4900 C.3   316  HIS316      0.1621
    168  C         69.1740   45.2070   17.3910 C.2   316  HIS316      0.2264
    169  O         68.2620   45.8560   17.9300 O.2   316  HIS316     -0.2867
    170  CB        69.8540   45.5920   15.0110 C.3   316  HIS316      0.0745
    171  CG        68.4290   45.9360   14.6660 C.ar  316  HIS316      0.0817
    172  ND1       67.9900   47.2340   14.5290 N.ar  316  HIS316     -0.2268
    173  CD2       67.3350   45.1500   14.4660 C.ar  316  HIS316      0.1154
    174  CE1       66.6860   47.2560   14.2680 C.ar  316  HIS316      0.1986
    175  NE2       66.2580   45.9930   14.2100 N.ar  316  HIS316     -0.2212
@<TRIPOS>BOND
     1   105   106    1
     2   105   104    1
     3   104   103    1
     4   104   107    1
     5   107   108    1
     6   107   109    1
     7   148   147    1
     8   147   146    1
     9    77    76    1
    10    74    76   ar
    11    74    72   ar
    12   146   145    1
    13    56    55   ar
    14    76    75   ar
    15    93    92    2
    16    97    96    2
    17    72    71   ar
    18    55    57   ar
    19    55    54    1
    20    96    95    1
    21    61    60    2
    22    85    84    2
    23   145   144    1
    24    92    91    1
    25    92    94   am
    26    54    53    1
    27    75    73   ar
    28    91    90    1
    29    71    73   ar
    30    71    70    1
    31    95    94    1
    32    95    98    1
    33    60    59    1
    34    84    90   am
    35    84    83    1
    36   144   141    1
    37    66    67    1
    38    67    70    1
    39    67    68    1
    40    53    50    1
    41    99    98    1
    42    99   100    1
    43    62    59    1
    44    62    63    1
    45    59    58    1
    46    58    51   am
    47    83    86    1
    48    83    82    1
    49    86    87    1
    50    51    50    1
    51    51    52    2
    52   140   141    1
    53   140   130   am
    54   136   134   ar
    55   136   138   ar
    56   156   154    1
    57   149   142   am
    58   149   150    1
    59    81    80    2
    60    50    49    1
    61   141   142    1
    62   153   154    1
    63   153   150    1
    64   153   155    1
    65    68    69    2
    66   134   133   ar
    67   151   150    1
    68   151   152    2
    69    64    63    1
    70    89    87   ar
    71   142   143    2
    72    87    88   ar
    73    63    65    1
    74   102   100   ar
    75   139   138    1
    76   129   130    1
    77   129   128    1
    78   129   132    1
    79   100   101   ar
    80   130   131    2
    81   138   137   ar
    82    82    80   am
    83    80    79    1
    84   133   132    1
    85   133   135   ar
    86    49    47   am
    87    48    47    2
    88   137   135   ar
    89    79    78    1
    90    47    46    1
    91   122   123    2
    92   122   121    1
    93   113   112    2
    94   126   125    2
    95   120   121    1
    96    46    45    1
    97   165   164    1
    98   110   111    1
    99   175   174   ar
   100   175   173   ar
   101   112   111    1
   102   174   172   ar
   103   173   171   ar
   104   172   171   ar
   105   121   124    1
   106   171   170    1
   107    33    31   ar
   108    33    34   ar
   109   170   167    1
   110   111   114    1
   111   163   164    1
   112   163   162    1
   113   125   124    1
   114   125   127   am
   115    31    30   ar
   116    34    32   ar
   117    18    19    1
   118    18    24    1
   119   114   115    1
   120    19    22    1
   121    19    20    1
   122    23    24    1
   123    23    22    1
   124    44    42   ar
   125    44    43   ar
   126   161   162    1
   127   161   158    1
   128   167   166    1
   129   167   168    1
   130    30    32   ar
   131    30    29    1
   132    10     8   ar
   133    10     9   ar
   134   115   116   ar
   135   115   117   ar
   136    42    40   ar
   137    43    41   ar
   138    20    21    2
   139     8     6   ar
   140   116   118   ar
   141    29    26    1
   142   157   158    1
   143   168   169    2
   144   117   119   ar
   145     9     7   ar
   146   158   159    1
   147    25    26    1
   148    41    40   ar
   149    40    39    1
   150    16    15    1
   151   118   119   ar
   152    26    27    1
   153    15    12    1
   154    15    17    1
   155     6     7   ar
   156     6     5    1
   157   159   160    1
   158    12    11    1
   159    12    13    1
   160    39    36    1
   161     5     2    1
   162    27    28    2
   163     2     1    1
   164     2     3    1
   165    13    14    2
   166    36    35    1
   167    36    37    1
   168     3     4    2
   169    37    38    2
