@<TRIPOS>MOLECULE
tmp/3ahgA00.pdb
 165 159 0 0 0
SMALL
GASTEIGER

@<TRIPOS>ATOM
      1  N         68.8920   50.9020   19.0770 N.3    63  THR63      -0.1218
      2  CA        68.3720   52.2950   19.0430 C.3    63  THR63       0.1862
      3  C         68.2450   52.8980   20.4570 C.2    63  THR63       0.2287
      4  O         68.2720   54.1290   20.6950 O.2    63  THR63      -0.2866
      5  CB        67.0220   52.3330   18.3040 C.3    63  THR63       0.1770
      6  OG1       66.6590   53.7060   18.0010 O.3    63  THR63      -0.2211
      7  CG2       65.8080   51.6660   19.1250 C.3    63  THR63       0.0375
      8  N         61.8710   55.1250   15.6310 N.3    91  PRO91      -0.2116
      9  CA        62.3200   53.7280   15.7720 C.3    91  PRO91       0.1372
     10  C         61.5490   53.0150   16.9120 C.2    91  PRO91       0.2244
     11  O         62.0560   52.9060   18.0220 O.2    91  PRO91      -0.2868
     12  CB        63.8410   53.8600   16.1140 C.3    91  PRO91       0.0268
     13  CG        64.1630   55.4390   15.9020 C.3    91  PRO91       0.0207
     14  CD        62.8560   56.1380   16.0930 C.3    91  PRO91       0.0892
     15  N         60.7360   50.1540   17.5770 N.3    93  HIS93      -0.1241
     16  CA        61.3240   48.9450   18.2010 C.3    93  HIS93       0.1621
     17  C         62.1420   49.3390   19.4220 C.2    93  HIS93       0.2264
     18  O         62.6130   48.4670   20.1890 O.2    93  HIS93      -0.2867
     19  CB        62.1870   48.1560   17.2320 C.3    93  HIS93       0.0745
     20  CG        63.1530   49.0180   16.4580 C.ar   93  HIS93       0.0817
     21  ND1       62.7270   49.8420   15.4370 N.ar   93  HIS93      -0.2268
     22  CD2       64.4910   49.2210   16.5940 C.ar   93  HIS93       0.1154
     23  CE1       63.7800   50.5020   14.9460 C.ar   93  HIS93       0.1986
     24  NE2       64.8600   50.1630   15.6460 N.ar   93  HIS93      -0.2212
     25  N         57.3320   46.9830   21.0590 N.3   138  HIS138     -0.1241
     26  CA        57.3950   48.3270   20.4410 C.3   138  HIS138      0.1621
     27  C         56.7100   49.3560   21.3200 C.2   138  HIS138      0.2264
     28  O         56.0360   49.0280   22.3070 O.2   138  HIS138     -0.2867
     29  CB        56.7810   48.3350   19.0330 C.3   138  HIS138      0.0745
     30  CG        57.6610   47.6790   18.0160 C.ar  138  HIS138      0.0817
     31  ND1       58.1480   46.3890   18.1730 N.ar  138  HIS138     -0.2268
     32  CD2       58.2210   48.1680   16.8720 C.ar  138  HIS138      0.1154
     33  CE1       58.9400   46.1040   17.1410 C.ar  138  HIS138      0.1986
     34  NE2       58.9700   47.1650   16.3310 N.ar  138  HIS138     -0.2212
     35  N         56.3480   50.5600   14.4120 N.3   151  GLY151     -0.1210
     36  CA        56.7770   49.2020   13.9420 C.3   151  GLY151      0.1956
     37  C         56.9670   49.1940   12.4340 C.2   151  GLY151      0.2612
     38  O         57.9930   48.7170   11.9200 O.2   151  GLY151     -0.2717
     39  N         56.0130   49.7710   11.7100 N.am  152  GLU152     -0.1965
     40  CA        56.1710   49.9510   10.2870 C.3   152  GLU152      0.1733
     41  C         56.7360   51.3670   10.0670 C.2   152  GLU152      0.2616
     42  O         56.0180   52.3760   10.2350 O.2   152  GLU152     -0.2715
     43  CB        54.8440   49.8420    9.5810 C.3   152  GLU152      0.0429
     44  CG        55.0390   49.8220    8.0160 C.3   152  GLU152      0.1163
     45  CD        53.6650   49.5810    7.3470 C.2   152  GLU152      0.3649
     46  OE1       53.0770   50.4880    6.7320 O.co2 152  GLU152     -0.2457
     47  OE2       53.1880   48.4220    7.4620 O.co2 152  GLU152     -0.2457
     48  N         58.0340   51.4450    9.7790 N.am  153  LEU153     -0.1977
     49  CA        58.7170   52.7620    9.7310 C.3   153  LEU153      0.1596
     50  C         58.2100   53.6230    8.6260 C.2   153  LEU153      0.2287
     51  O         57.7620   53.1300    7.5710 O.2   153  LEU153     -0.2864
     52  CB        60.2610   52.5060    9.5650 C.3   153  LEU153      0.0297
     53  CG        60.8740   51.7160   10.7480 C.3   153  LEU153      0.0022
     54  CD1       62.3640   51.3960   10.4290 C.3   153  LEU153      0.0001
     55  CD2       60.8290   52.5080   12.0900 C.3   153  LEU153      0.0001
     56  N         56.2740   56.8100    9.0990 N.3   155  TYR155     -0.1241
     57  CA        55.1870   57.8160    9.2980 C.3   155  TYR155      0.1605
     58  C         55.5190   58.8070   10.4100 C.2   155  TYR155      0.2264
     59  O         54.6470   59.5270   10.9250 O.2   155  TYR155     -0.2867
     60  CB        53.8370   57.1020    9.5870 C.3   155  TYR155      0.0534
     61  CG        53.7130   55.9310    8.6020 C.ar  155  TYR155     -0.0201
     62  CD1       53.7570   56.1670    7.2380 C.ar  155  TYR155     -0.0009
     63  CD2       53.6980   54.6210    9.0770 C.ar  155  TYR155     -0.0009
     64  CE1       53.7150   55.0720    6.2770 C.ar  155  TYR155      0.0417
     65  CE2       53.6430   53.5540    8.1750 C.ar  155  TYR155      0.0417
     66  CZ        53.6800   53.7830    6.7980 C.ar  155  TYR155      0.1957
     67  OH        53.6960   52.7390    5.9330 O.3   155  TYR155     -0.2866
     68  N         64.3850   57.3040   12.7060 N.3   177  GLY177     -0.1210
     69  CA        65.6040   56.4380   12.4940 C.3   177  GLY177      0.1956
     70  C         66.3680   56.8210   11.2070 C.2   177  GLY177      0.2612
     71  O         65.8040   57.2690   10.2400 O.2   177  GLY177     -0.2717
     72  N         67.6870   56.5700   11.1570 N.am  178  ASP178     -0.1959
     73  CA        68.3190   56.8670    9.9010 C.3   178  ASP178      0.1840
     74  C         67.9940   55.7900    8.8400 C.2   178  ASP178      0.2623
     75  O         67.9580   56.0830    7.6550 O.2   178  ASP178     -0.2715
     76  CB        69.8270   57.1980   10.0710 C.3   178  ASP178      0.1450
     77  CG        70.6210   56.1290   10.7560 C.2   178  ASP178      0.3671
     78  OD1       70.0590   55.1780   11.3220 O.co2 178  ASP178     -0.2456
     79  OD2       71.8820   56.1950   10.7230 O.co2 178  ASP178     -0.2456
     80  N         67.6920   54.5510    9.2830 N.am  179  GLY179     -0.1940
     81  CA        67.1090   53.5300    8.3190 C.3   179  GLY179      0.2014
     82  C         65.7330   54.0050    7.8830 C.2   179  GLY179      0.2638
     83  O         65.3580   54.0000    6.6890 O.2   179  GLY179     -0.2714
     84  N         64.9480   54.4290    8.8600 N.am  180  GLU180     -0.1977
     85  CA        63.5910   54.9010    8.5750 C.3   180  GLU180      0.1602
     86  C         63.5560   55.9960    7.4810 C.2   180  GLU180      0.2287
     87  O         62.6690   56.1160    6.6130 O.2   180  GLU180     -0.2864
     88  CB        62.9570   55.3700    9.9150 C.3   180  GLU180      0.0415
     89  CG        61.6600   56.2310    9.6480 C.3   180  GLU180      0.1163
     90  CD        60.8480   56.5230   10.8920 C.2   180  GLU180      0.3649
     91  OE1       61.4600   56.7820   11.9350 O.co2 180  GLU180     -0.2457
     92  OE2       59.5680   56.5480   10.7810 O.co2 180  GLU180     -0.2457
     93  N         62.9690   55.2550    3.8190 N.3   183  THR183     -0.1218
     94  CA        61.5890   54.9830    3.2770 C.3   183  THR183      0.1862
     95  C         61.0310   56.1400    2.5030 C.2   183  THR183      0.2287
     96  O         61.4040   57.3450    2.7370 O.2   183  THR183     -0.2866
     97  CB        60.5860   54.6660    4.4470 C.3   183  THR183      0.1770
     98  OG1       60.3360   55.8120    5.2640 O.3   183  THR183     -0.2211
     99  CG2       61.1090   53.4650    5.3090 C.3   183  THR183      0.0375
    100  N         68.0850   60.3180   14.1370 N.3   209  HIS209     -0.1241
    101  CA        68.8150   59.4850   15.0710 C.3   209  HIS209      0.1621
    102  C         69.8840   58.8090   14.1700 C.2   209  HIS209      0.2264
    103  O         69.7890   57.6260   13.7080 O.2   209  HIS209     -0.2867
    104  CB        67.8520   58.4720   15.7510 C.3   209  HIS209      0.0745
    105  CG        68.4710   57.5880   16.8090 C.ar  209  HIS209      0.0817
    106  ND1       69.7790   57.7060   17.2370 N.ar  209  HIS209     -0.2268
    107  CD2       67.9350   56.5450   17.5150 C.ar  209  HIS209      0.1154
    108  CE1       70.0190   56.8040   18.1750 C.ar  209  HIS209      0.1986
    109  NE2       68.9030   56.0840   18.3680 N.ar  209  HIS209     -0.2212
    110  N         72.4670   56.9930   13.8830 N.3   211  ASN211     -0.1240
    111  CA        73.4020   56.0740   14.6010 C.3   211  ASN211      0.1653
    112  C         74.2210   55.1930   13.6870 C.2   211  ASN211      0.2266
    113  O         74.9840   54.3150   14.1960 O.2   211  ASN211     -0.2867
    114  CB        72.6890   55.2320   15.7200 C.3   211  ASN211      0.1155
    115  CG        71.5650   54.3850   15.1390 C.2   211  ASN211      0.2627
    116  OD1       71.4780   54.2050   13.9030 O.2   211  ASN211     -0.2716
    117  ND2       70.6790   53.8760   16.0060 N.am  211  ASN211     -0.0877
    118  N         73.4770   53.0110   11.2270 N.3   213  TYR213     -0.1227
    119  CA        73.1420   51.6670   10.8000 C.3   213  TYR213      0.1736
    120  C         71.6620   51.4340   10.9160 C.2   213  TYR213      0.2595
    121  O         70.9600   52.0970   11.6690 O.2   213  TYR213     -0.2718
    122  CB        73.8170   50.6070   11.7410 C.3   213  TYR213      0.0548
    123  CG        75.3240   50.7630   11.5610 C.ar  213  TYR213     -0.0200
    124  CD1       75.9560   50.2030   10.4360 C.ar  213  TYR213     -0.0009
    125  CD2       76.0590   51.5570   12.4400 C.ar  213  TYR213     -0.0009
    126  CE1       77.3830   50.4100   10.2070 C.ar  213  TYR213      0.0417
    127  CE2       77.4660   51.7640   12.2410 C.ar  213  TYR213      0.0417
    128  CZ        78.0860   51.1850   11.1050 C.ar  213  TYR213      0.1957
    129  OH        79.4490   51.4410   10.8950 O.3   213  TYR213     -0.2866
    130  N         71.2260   50.4460   10.1830 N.am  214  LYS214     -0.1966
    131  CA        69.8280   49.9100   10.3150 C.3   214  LYS214      0.1728
    132  C         70.1240   48.4600   10.7820 C.2   214  LYS214      0.2616
    133  O         71.0060   48.2920   11.6840 O.2   214  LYS214     -0.2715
    134  CB        69.0840   50.1000    8.9970 C.3   214  LYS214      0.0311
    135  CG        69.9300   49.7710    7.6850 C.3   214  LYS214      0.0038
    136  CD        68.9530   50.1900    6.4920 C.3   214  LYS214      0.0206
    137  CE        69.4770   49.8130    5.0720 C.3   214  LYS214      0.1093
    138  NZ        70.5740   50.7300    4.6360 N.3   214  LYS214     -0.1314
    139  N         69.4820   47.4140   10.2540 N.am  215  ILE215     -0.1977
    140  CA        69.6250   46.0680   10.8860 C.3   215  ILE215      0.1596
    141  C         70.9000   45.3930   10.5130 C.2   215  ILE215      0.2287
    142  O         71.5910   44.8270   11.3660 O.2   215  ILE215     -0.2864
    143  CB        68.4720   45.0850   10.4470 C.3   215  ILE215      0.0276
    144  CG1       67.1880   45.5960   11.0480 C.3   215  ILE215      0.0022
    145  CG2       68.8020   43.6240   11.0010 C.3   215  ILE215      0.0022
    146  CD1       65.8950   44.7730   10.7850 C.3   215  ILE215      0.0001
    147  N         75.5960   53.3820   17.4190 N.3   296  LYS296     -0.1245
    148  CA        74.4020   52.4770   17.6460 C.3   296  LYS296      0.1561
    149  C         74.7070   51.5500   18.8120 C.2   296  LYS296      0.2260
    150  O         75.8810   51.0700   18.9370 O.2   296  LYS296     -0.2867
    151  CB        74.0910   51.7090   16.3590 C.3   296  LYS296      0.0271
    152  CG        72.7120   50.9300   16.4800 C.3   296  LYS296      0.0035
    153  CD        72.1610   50.5510   15.0730 C.3   296  LYS296      0.0206
    154  CE        70.8760   49.6710   15.3050 C.3   296  LYS296      0.1093
    155  NZ        70.1310   49.7390   14.0120 N.3   296  LYS296     -0.1314
    156  N         71.8830   46.0180   16.7510 N.3   316  HIS316     -0.1241
    157  CA        70.4840   46.3270   16.4580 C.3   316  HIS316      0.1621
    158  C         69.4770   45.5630   17.3900 C.2   316  HIS316      0.2264
    159  O         68.5380   46.1800   17.9660 O.2   316  HIS316     -0.2867
    160  CB        70.0930   45.9590   14.9770 C.3   316  HIS316      0.0745
    161  CG        68.6420   46.2880   14.7080 C.ar  316  HIS316      0.0817
    162  ND1       68.2350   47.5860   14.4760 N.ar  316  HIS316     -0.2268
    163  CD2       67.4970   45.5280   14.7210 C.ar  316  HIS316      0.1154
    164  CE1       66.9040   47.6470   14.3730 C.ar  316  HIS316      0.1986
    165  NE2       66.4280   46.4000   14.4970 N.ar  316  HIS316     -0.2212
@<TRIPOS>BOND
     1    95    96    2
     2    95    94    1
     3    94    93    1
     4    94    97    1
     5    97    98    1
     6    97    99    1
     7   138   137    1
     8   137   136    1
     9    67    66    1
    10    64    66   ar
    11    64    62   ar
    12   136   135    1
    13    87    86    2
    14    83    82    2
    15    46    45   ar
    16    66    65   ar
    17    62    61   ar
    18    45    47   ar
    19    45    44    1
    20    86    85    1
    21    51    50    2
    22    75    74    2
    23   135   134    1
    24    82    81    1
    25    82    84   am
    26    44    43    1
    27    65    63   ar
    28    81    80    1
    29    85    84    1
    30    85    88    1
    31    61    63   ar
    32    61    60    1
    33    50    49    1
    34    74    80   am
    35    74    73    1
    36   134   131    1
    37    56    57    1
    38    57    60    1
    39    57    58    1
    40    52    49    1
    41    52    53    1
    42    43    40    1
    43    89    88    1
    44    89    90    1
    45    49    48    1
    46    48    41   am
    47    73    76    1
    48    73    72    1
    49    41    42    2
    50    41    40    1
    51    76    77    1
    52   130   131    1
    53   130   120   am
    54   126   124   ar
    55   126   128   ar
    56    71    70    2
    57   139   132   am
    58   139   140    1
    59    40    39    1
    60   131   132    1
    61    58    59    2
    62    54    53    1
    63   124   123   ar
    64   143   140    1
    65   143   145    1
    66   143   144    1
    67   141   140    1
    68   141   142    2
    69    79    77   ar
    70    53    55    1
    71    77    78   ar
    72    92    90   ar
    73   132   133    2
    74   146   144    1
    75   119   120    1
    76   119   118    1
    77   119   122    1
    78    90    91   ar
    79   129   128    1
    80   120   121    2
    81   128   127   ar
    82    72    70   am
    83    70    69    1
    84   123   122    1
    85   123   125   ar
    86    39    37   am
    87    38    37    2
    88   127   125   ar
    89    37    36    1
    90    69    68    1
    91   112   113    2
    92   112   111    1
    93   103   102    2
    94   110   111    1
    95   116   115    2
    96    36    35    1
    97   155   154    1
    98   100   101    1
    99   102   101    1
   100   164   162   ar
   101   164   165   ar
   102   162   161   ar
   103   165   163   ar
   104   111   114    1
   105   161   163   ar
   106   161   160    1
   107    23    21   ar
   108    23    24   ar
   109   160   157    1
   110   101   104    1
   111   153   154    1
   112   153   152    1
   113   115   114    1
   114   115   117   am
   115    21    20   ar
   116     8     9    1
   117     8    14    1
   118    24    22   ar
   119   104   105    1
   120     9    12    1
   121     9    10    1
   122    13    14    1
   123    13    12    1
   124    34    32   ar
   125    34    33   ar
   126   151   152    1
   127   151   148    1
   128   157   156    1
   129   157   158    1
   130    20    22   ar
   131    20    19    1
   132   105   106   ar
   133   105   107   ar
   134    32    30   ar
   135    10    11    2
   136    33    31   ar
   137    19    16    1
   138   106   108   ar
   139   158   159    2
   140   147   148    1
   141   107   109   ar
   142    15    16    1
   143   148   149    1
   144     6     5    1
   145    30    31   ar
   146    30    29    1
   147   108   109   ar
   148    16    17    1
   149     5     2    1
   150     5     7    1
   151   149   150    2
   152    29    26    1
   153     2     1    1
   154     2     3    1
   155    17    18    2
   156    26    25    1
   157    26    27    1
   158     3     4    2
   159    27    28    2
