@<TRIPOS>MOLECULE
tmp/3ahtA00.pdb
 182 178 0 0 0
SMALL
GASTEIGER

@<TRIPOS>ATOM
      1  N          3.3560   -2.5640   26.7450 N.3    24  GLN24      -0.1245
      2  CA         2.5440   -1.3800   26.9850 C.3    24  GLN24       0.1566
      3  C          2.3740   -0.4720   25.7650 C.2    24  GLN24       0.2260
      4  O          1.3950    0.2750   25.6850 O.2    24  GLN24      -0.2867
      5  CB         3.0610   -0.6090   28.2020 C.3    24  GLN24       0.0367
      6  CG         2.8120   -1.3520   29.5120 C.3    24  GLN24       0.0905
      7  CD         3.1980   -0.5500   30.7330 C.2    24  GLN24       0.2608
      8  OE1        4.3750   -0.4230   31.0630 O.2    24  GLN24      -0.2717
      9  NE2        2.2060   -0.0100   31.4180 N.am   24  GLN24      -0.0878
     10  N         10.0240   -6.9330   31.5990 N.3   125  HIS125     -0.1226
     11  CA         9.0850   -5.9740   32.1540 C.3   125  HIS125      0.1752
     12  C          7.7260   -6.6470   32.2550 C.2   125  HIS125      0.2596
     13  O          6.8320   -6.3680   31.4620 O.2   125  HIS125     -0.2718
     14  CB         9.0060   -4.7260   31.2680 C.3   125  HIS125      0.0759
     15  CG         8.3970   -3.5370   31.9460 C.ar  125  HIS125      0.0818
     16  ND1        8.9530   -2.2770   31.8810 N.ar  125  HIS125     -0.2268
     17  CD2        7.2860   -3.4170   32.7140 C.ar  125  HIS125      0.1154
     18  CE1        8.2110   -1.4330   32.5750 C.ar  125  HIS125      0.1986
     19  NE2        7.1920   -2.0980   33.0900 N.ar  125  HIS125     -0.2212
     20  N          7.5890   -7.5560   33.2170 N.am  126  TYR126     -0.1976
     21  CA         6.3230   -8.2500   33.4840 C.3   126  TYR126      0.1639
     22  C          5.9420   -9.3060   32.4470 C.2   126  TYR126      0.2290
     23  O          5.0750  -10.1400   32.6940 O.2   126  TYR126     -0.2864
     24  CB         5.1670   -7.2520   33.6230 C.3   126  TYR126      0.0560
     25  CG         5.3500   -6.2340   34.7210 C.ar  126  TYR126     -0.0198
     26  CD1        4.6020   -5.0570   34.7390 C.ar  126  TYR126     -0.0009
     27  CD2        6.2760   -6.4370   35.7340 C.ar  126  TYR126     -0.0009
     28  CE1        4.7660   -4.1130   35.7470 C.ar  126  TYR126      0.0417
     29  CE2        6.4490   -5.5040   36.7460 C.ar  126  TYR126      0.0417
     30  CZ         5.6920   -4.3440   36.7470 C.ar  126  TYR126      0.1957
     31  OH         5.8630   -3.4220   37.7540 O.3   126  TYR126     -0.2866
     32  N         12.6200   -5.2200   36.0350 N.3   170  ASN170     -0.1225
     33  CA        11.8780   -4.0070   36.3460 C.3   170  ASN170      0.1785
     34  C         10.9380   -4.2640   37.5150 C.2   170  ASN170      0.2597
     35  O          9.9520   -4.9870   37.3840 O.2   170  ASN170     -0.2718
     36  CB        11.0790   -3.5550   35.1220 C.3   170  ASN170      0.1169
     37  CG        10.2340   -2.3280   35.3960 C.2   170  ASN170      0.2627
     38  OD1       10.7370   -1.2040   35.3950 O.2   170  ASN170     -0.2716
     39  ND2        8.9380   -2.5340   35.6170 N.am  170  ASN170     -0.0877
     40  N         11.2680   -3.6910   38.6670 N.am  171  GLN171     -0.1979
     41  CA        10.4210   -3.7840   39.8510 C.3   171  GLN171      0.1601
     42  C         10.0190   -5.2050   40.2010 C.2   171  GLN171      0.2287
     43  O          8.8350   -5.5200   40.2270 O.2   171  GLN171     -0.2864
     44  CB         9.1640   -2.9390   39.6610 C.3   171  GLN171      0.0394
     45  CG         9.4610   -1.4700   39.4630 C.3   171  GLN171      0.0908
     46  CD         8.2140   -0.6590   39.2240 C.2   171  GLN171      0.2608
     47  OE1        8.1880    0.5500   39.4630 O.2   171  GLN171     -0.2717
     48  NE2        7.1660   -1.3190   38.7500 N.am  171  GLN171     -0.0878
     49  N          9.6830   -6.2470   42.8630 N.3   173  ARG173     -0.1231
     50  CA         8.8590   -6.1720   44.0680 C.3   173  ARG173      0.1694
     51  C          7.3690   -6.2070   43.7310 C.2   173  ARG173      0.2591
     52  O          6.5820   -6.8770   44.4070 O.2   173  ARG173     -0.2718
     53  CB         9.1630   -4.9100   44.8720 C.3   173  ARG173      0.0321
     54  CG         8.6010   -4.9680   46.2730 C.3   173  ARG173      0.0489
     55  CD         8.6980   -3.6330   46.9730 C.3   173  ARG173      0.2205
     56  NE         7.5680   -2.7710   46.6420 N.pl3 173  ARG173     -0.0865
     57  CZ         6.4050   -2.7880   47.2870 C.cat 173  ARG173      0.5346
     58  NH1        6.2150   -3.6230   48.3020 N.pl3 173  ARG173      0.1354
     59  NH2        5.4330   -1.9680   46.9190 N.pl3 173  ARG173      0.1354
     60  N          6.9880   -5.4740   42.6870 N.am  174  ILE174     -0.1980
     61  CA         5.6010   -5.4230   42.2670 C.3   174  ILE174      0.1595
     62  C          5.1540   -6.7840   41.7570 C.2   174  ILE174      0.2287
     63  O          4.0030   -7.1810   41.9550 O.2   174  ILE174     -0.2864
     64  CB         5.3760   -4.3700   41.1720 C.3   174  ILE174      0.0276
     65  CG1        5.8250   -2.9880   41.6590 C.3   174  ILE174      0.0022
     66  CG2        3.9150   -4.3510   40.7550 C.3   174  ILE174      0.0022
     67  CD1        5.0640   -2.4750   42.8660 C.3   174  ILE174      0.0001
     68  N          2.1150   -8.0460   43.8500 N.3   178  LEU178     -0.1245
     69  CA         0.8310   -8.1140   43.1460 C.3   178  LEU178      0.1561
     70  C          0.5600   -9.4680   42.4920 C.2   178  LEU178      0.2260
     71  O         -0.5890   -9.8070   42.2230 O.2   178  LEU178     -0.2867
     72  CB         0.7160   -7.0080   42.0990 C.3   178  LEU178      0.0270
     73  CG         0.9320   -5.5800   42.5980 C.3   178  LEU178      0.0019
     74  CD1        0.6960   -4.6040   41.4620 C.3   178  LEU178      0.0001
     75  CD2        0.0290   -5.2750   43.7670 C.3   178  LEU178      0.0001
     76  N         11.6140   -0.2760   42.2890 N.3   238  ASP238     -0.1239
     77  CA        10.6850    0.7710   42.6940 C.3   238  ASP238      0.1674
     78  C         10.9870    1.1610   44.1230 C.2   238  ASP238      0.2266
     79  O         11.3090    0.3210   44.9560 O.2   238  ASP238     -0.2867
     80  CB         9.2370    0.3070   42.5900 C.3   238  ASP238      0.1410
     81  CG         8.9450   -0.8530   43.4990 C.2   238  ASP238      0.3668
     82  OD1        9.5070   -1.9440   43.2510 O.co2 238  ASP238     -0.2456
     83  OD2        8.1640   -0.6790   44.4620 O.co2 238  ASP238     -0.2456
     84  N          9.2100    3.8760   46.8740 N.3   240  ASN240     -0.1240
     85  CA         8.3560    4.9690   47.2990 C.3   240  ASN240      0.1653
     86  C          8.7520    5.3730   48.7030 C.2   240  ASN240      0.2266
     87  O          9.0460    4.5210   49.5270 O.2   240  ASN240     -0.2867
     88  CB         6.8820    4.5820   47.2130 C.3   240  ASN240      0.1155
     89  CG         6.3630    4.5660   45.7790 C.2   240  ASN240      0.2627
     90  OD1        6.7350    5.4010   44.9470 O.2   240  ASN240     -0.2716
     91  ND2        5.4940    3.6120   45.4870 N.am  240  ASN240     -0.0877
     92  N         12.5620    3.5710   40.4260 N.3   308  ASN308     -0.1240
     93  CA        11.2550    4.0770   40.0390 C.3   308  ASN308      0.1653
     94  C         10.6140    4.7970   41.2190 C.2   308  ASN308      0.2266
     95  O         10.1530    4.1650   42.1720 O.2   308  ASN308     -0.2867
     96  CB        10.3600    2.9430   39.5580 C.3   308  ASN308      0.1155
     97  CG        10.7270    2.4690   38.1770 C.2   308  ASN308      0.2627
     98  OD1       11.5790    3.0630   37.5140 O.2   308  ASN308     -0.2716
     99  ND2       10.0910    1.3910   37.7290 N.am  308  ASN308     -0.0877
    100  N          7.8270    7.5600   42.6720 N.3   310  TYR310     -0.1241
    101  CA         6.5570    8.1980   42.3590 C.3   310  TYR310      0.1605
    102  C          5.9950    8.9550   43.5490 C.2   310  TYR310      0.2264
    103  O          5.5530   10.0990   43.4220 O.2   310  TYR310     -0.2867
    104  CB         5.5230    7.1660   41.9080 C.3   310  TYR310      0.0534
    105  CG         5.6900    6.6560   40.4940 C.ar  310  TYR310     -0.0201
    106  CD1        6.3110    5.4340   40.2410 C.ar  310  TYR310     -0.0009
    107  CD2        5.2060    7.3850   39.4090 C.ar  310  TYR310     -0.0009
    108  CE1        6.4580    4.9620   38.9450 C.ar  310  TYR310      0.0417
    109  CE2        5.3500    6.9200   38.1090 C.ar  310  TYR310      0.0417
    110  CZ         5.9730    5.7100   37.8830 C.ar  310  TYR310      0.1957
    111  OH         6.1130    5.2460   36.5930 O.3   310  TYR310     -0.2866
    112  N         -2.9930    5.3670   44.1830 N.3   353  TRP353     -0.1241
    113  CA        -1.7740    5.1490   44.9520 C.3   353  TRP353      0.1605
    114  C         -0.7680    6.2560   44.7100 C.2   353  TRP353      0.2264
    115  O          0.2210    6.3610   45.4220 O.2   353  TRP353     -0.2867
    116  CB        -1.1380    3.8130   44.5920 C.3   353  TRP353      0.0550
    117  CG        -0.8950    3.6770   43.1390 C.ar  353  TRP353      0.0003
    118  CD1       -1.7110    3.0750   42.2310 C.ar  353  TRP353      0.0946
    119  CD2        0.2300    4.1770   42.4000 C.ar  353  TRP353      0.0152
    120  NE1       -1.1630    3.1550   40.9700 N.ar  353  TRP353     -0.2442
    121  CE2        0.0290    3.8270   41.0450 C.ar  353  TRP353      0.0810
    122  CE3        1.3870    4.8830   42.7500 C.ar  353  TRP353      0.0012
    123  CZ2        0.9460    4.1590   40.0370 C.ar  353  TRP353      0.0191
    124  CZ3        2.2990    5.2100   41.7450 C.ar  353  TRP353      0.0001
    125  CH2        2.0700    4.8490   40.4070 C.ar  353  TRP353      0.0015
    126  N         12.1060    6.0640   36.2570 N.3   381  GLU381     -0.1245
    127  CA        10.6910    6.3280   36.0330 C.3   381  GLU381      0.1567
    128  C         10.1950    7.3950   36.9730 C.2   381  GLU381      0.2260
    129  O         10.4330    7.3260   38.1750 O.2   381  GLU381     -0.2867
    130  CB         9.8540    5.0760   36.2750 C.3   381  GLU381      0.0388
    131  CG         9.7250    4.1470   35.0880 C.3   381  GLU381      0.1160
    132  CD         8.8270    2.9610   35.4030 C.2   381  GLU381      0.3649
    133  OE1        7.8530    3.1400   36.1830 O.co2 381  GLU381     -0.2457
    134  OE2        9.0940    1.8510   34.8790 O.co2 381  GLU381     -0.2457
    135  N          8.3920    8.7590   32.9960 N.3   428  TRP428     -0.1241
    136  CA         7.3210    7.8830   32.5640 C.3   428  TRP428      0.1605
    137  C          6.0440    8.7130   32.4240 C.2   428  TRP428      0.2264
    138  O          5.5620    9.2830   33.3990 O.2   428  TRP428     -0.2867
    139  CB         7.1100    6.7310   33.5510 C.3   428  TRP428      0.0550
    140  CG         6.0140    5.8270   33.0950 C.ar  428  TRP428      0.0003
    141  CD1        4.6710    6.0080   33.2820 C.ar  428  TRP428      0.0946
    142  CD2        6.1530    4.6220   32.3330 C.ar  428  TRP428      0.0152
    143  NE1        3.9720    4.9800   32.7000 N.ar  428  TRP428     -0.2442
    144  CE2        4.8590    4.1170   32.1090 C.ar  428  TRP428      0.0810
    145  CE3        7.2470    3.9140   31.8280 C.ar  428  TRP428      0.0012
    146  CZ2        4.6290    2.9430   31.4000 C.ar  428  TRP428      0.0191
    147  CZ3        7.0160    2.7460   31.1250 C.ar  428  TRP428      0.0001
    148  CH2        5.7170    2.2720   30.9190 C.ar  428  TRP428      0.0015
    149  N         -1.9640    0.9660   30.6020 N.3   435  GLU435     -0.1231
    150  CA        -1.5470    1.0510   31.9980 C.3   435  GLU435      0.1699
    151  C         -2.0440   -0.1450   32.8230 C.2   435  GLU435      0.2592
    152  O         -2.7870    0.0080   33.7980 O.2   435  GLU435     -0.2718
    153  CB        -1.9860    2.3990   32.6050 C.3   435  GLU435      0.0402
    154  CG        -1.7790    2.5490   34.1150 C.3   435  GLU435      0.1161
    155  CD        -0.3530    2.2370   34.5680 C.2   435  GLU435      0.3649
    156  OE1        0.5890    2.4290   33.7680 O.co2 435  GLU435     -0.2457
    157  OE2       -0.1730    1.7970   35.7320 O.co2 435  GLU435     -0.2457
    158  N         -1.6270   -1.3380   32.4110 N.am  436  TRP436     -0.1976
    159  CA        -1.9670   -2.5830   33.1070 C.3   436  TRP436      0.1640
    160  C         -3.4440   -2.7010   33.5370 C.2   436  TRP436      0.2290
    161  O         -4.3460   -2.6230   32.7020 O.2   436  TRP436     -0.2864
    162  CB        -1.0180   -2.7960   34.2860 C.3   436  TRP436      0.0576
    163  CG         0.4300   -2.6950   33.8850 C.ar  436  TRP436      0.0006
    164  CD1        1.3440   -1.7710   34.3150 C.ar  436  TRP436      0.0946
    165  CD2        1.1260   -3.5380   32.9550 C.ar  436  TRP436      0.0152
    166  NE1        2.5620   -1.9970   33.7190 N.ar  436  TRP436     -0.2442
    167  CE2        2.4550   -3.0740   32.8820 C.ar  436  TRP436      0.0810
    168  CE3        0.7540   -4.6480   32.1860 C.ar  436  TRP436      0.0012
    169  CZ2        3.4100   -3.6780   32.0730 C.ar  436  TRP436      0.0191
    170  CZ3        1.7020   -5.2450   31.3800 C.ar  436  TRP436      0.0001
    171  CH2        3.0150   -4.7600   31.3300 C.ar  436  TRP436      0.0015
    172  N         -0.4130    8.5090   31.3330 N.3   444  PHE444     -0.1241
    173  CA         0.8790    8.9200   31.9060 C.3   444  PHE444      0.1605
    174  C          1.7790    9.7020   30.9480 C.2   444  PHE444      0.2264
    175  O          2.8000   10.2400   31.3600 O.2   444  PHE444     -0.2867
    176  CB         1.6640    7.7000   32.3930 C.3   444  PHE444      0.0534
    177  CG         1.3580    7.3000   33.8000 C.ar  444  PHE444     -0.0203
    178  CD1        1.9620    7.9490   34.8640 C.ar  444  PHE444     -0.0042
    179  CD2        0.4780    6.2650   34.0620 C.ar  444  PHE444     -0.0042
    180  CE1        1.6850    7.5860   36.1580 C.ar  444  PHE444     -0.0003
    181  CE2        0.2000    5.8890   35.3570 C.ar  444  PHE444     -0.0003
    182  CZ         0.8070    6.5510   36.4070 C.ar  444  PHE444     -0.0000
@<TRIPOS>BOND
     1     4     3    2
     2     3     2    1
     3     1     2    1
     4     2     5    1
     5     5     6    1
     6     6     7    1
     7   149   150    1
     8     7     8    2
     9     7     9   am
    10   148   147   ar
    11   148   146   ar
    12   174   175    2
    13   174   173    1
    14   147   145   ar
    15    14    15    1
    16    14    11    1
    17   171   170   ar
    18   171   169   ar
    19   172   173    1
    20   170   168   ar
    21   146   144   ar
    22    13    12    2
    23    10    11    1
    24   145   142   ar
    25    16    15   ar
    26    16    18   ar
    27   173   176    1
    28    15    17   ar
    29   150   153    1
    30   150   151    1
    31   169   167   ar
    32   144   142   ar
    33   144   143   ar
    34    11    12    1
    35   168   165   ar
    36    12    20   am
    37   142   140   ar
    38   176   177    1
    39   158   151   am
    40   158   159    1
    41   137   136    1
    42   137   138    2
    43    22    23    2
    44    22    21    1
    45   136   135    1
    46   136   139    1
    47    18    19   ar
    48   153   154    1
    49   143   141   ar
    50   161   160    2
    51    17    19   ar
    52   151   152    2
    53   167   165   ar
    54   167   166   ar
    55   165   163   ar
    56   140   141   ar
    57   140   139    1
    58   159   160    1
    59   159   162    1
    60    20    21    1
    61    21    24    1
    62    24    25    1
    63   166   164   ar
    64   156   155   ar
    65   177   179   ar
    66   177   178   ar
    67   163   162    1
    68   163   164   ar
    69   179   181   ar
    70   154   155    1
    71   155   157   ar
    72    25    26   ar
    73    25    27   ar
    74    26    28   ar
    75   178   180   ar
    76   134   132   ar
    77   131   132    1
    78   131   130    1
    79    36    37    1
    80    36    33    1
    81   181   182   ar
    82    38    37    2
    83    37    39   am
    84   132   133   ar
    85    27    29   ar
    86    28    30   ar
    87   127   126    1
    88   127   130    1
    89   127   128    1
    90    32    33    1
    91   180   182   ar
    92    33    34    1
    93   111   110    1
    94    29    30   ar
    95    30    31    1
    96   128   129    2
    97    35    34    2
    98    98    97    2
    99    34    40   am
   100    99    97   am
   101   110   109   ar
   102   110   108   ar
   103   109   107   ar
   104    97    96    1
   105    40    41    1
   106    48    46   am
   107   108   106   ar
   108    46    45    1
   109    46    47    2
   110   107   105   ar
   111    45    44    1
   112    96    93    1
   113    44    41    1
   114    41    42    1
   115   123   125   ar
   116   123   121   ar
   117    93    92    1
   118    93    94    1
   119    42    43    2
   120   106   105   ar
   121   125   124   ar
   122   105   104    1
   123    66    64    1
   124   120   121   ar
   125   120   118   ar
   126   121   119   ar
   127    64    65    1
   128    64    61    1
   129    94    95    2
   130    74    73    1
   131    65    67    1
   132   124   122   ar
   133    62    63    2
   134    62    61    1
   135   104   101    1
   136    72    73    1
   137    72    69    1
   138    71    70    2
   139   118   117   ar
   140    61    60    1
   141    76    77    1
   142   101   100    1
   143   101   102    1
   144   119   122   ar
   145   119   117   ar
   146    70    69    1
   147    80    77    1
   148    80    81    1
   149    73    75    1
   150    60    51   am
   151    77    78    1
   152    49    50    1
   153   117   116    1
   154    69    68    1
   155    82    81   ar
   156   103   102    2
   157    81    83   ar
   158    51    50    1
   159    51    52    2
   160    50    53    1
   161    78    79    2
   162   112   113    1
   163   116   113    1
   164   114   113    1
   165   114   115    2
   166    53    54    1
   167    90    89    2
   168    91    89   am
   169    89    88    1
   170    54    55    1
   171    56    55    1
   172    56    57    2
   173    84    85    1
   174    59    57    1
   175    88    85    1
   176    57    58    1
   177    85    86    1
   178    86    87    2
