@<TRIPOS>MOLECULE
tmp/3ahwA00.pdb
 127 126 0 0 0
SMALL
GASTEIGER

@<TRIPOS>ATOM
      1  N         21.7490    5.7490   13.5760 N.3    38  ASN38      -0.1225
      2  CA        20.8060    6.3930   12.6910 C.3    38  ASN38       0.1785
      3  C         19.4510    5.7120   12.6680 C.2    38  ASN38       0.2597
      4  O         18.4480    6.3730   12.4570 O.2    38  ASN38      -0.2718
      5  CB        21.3540    6.4650   11.2620 C.3    38  ASN38       0.1169
      6  CG        22.4780    7.4850   11.0920 C.2    38  ASN38       0.2627
      7  OD1       22.6750    8.3600   11.9470 O.2    38  ASN38      -0.2716
      8  ND2       23.1960    7.4040    9.9670 N.am   38  ASN38      -0.0877
      9  N         19.4310    4.3960   12.8720 N.am   39  TYR39      -0.1976
     10  CA        18.2010    3.6190   12.8710 C.3    39  TYR39       0.1639
     11  C         18.1120    2.7860   14.1430 C.2    39  TYR39       0.2290
     12  O         19.1380    2.3240   14.6430 O.2    39  TYR39      -0.2864
     13  CB        18.1330    2.6640   11.6690 C.3    39  TYR39       0.0560
     14  CG        18.1720    3.4090   10.3530 C.ar   39  TYR39      -0.0198
     15  CD1       17.0030    3.9570    9.8000 C.ar   39  TYR39      -0.0009
     16  CD2       19.3700    3.6400    9.7040 C.ar   39  TYR39      -0.0009
     17  CE1       17.0360    4.7060    8.6420 C.ar   39  TYR39       0.0417
     18  CE2       19.4140    4.3870    8.5430 C.ar   39  TYR39       0.0417
     19  CZ        18.2550    4.9600    8.0340 C.ar   39  TYR39       0.1957
     20  OH        18.3320    5.7270    6.9000 O.3    39  TYR39      -0.2866
     21  N         14.5730    5.1870   13.7040 N.3    41  HIS41      -0.1241
     22  CA        14.1720    6.5420   14.0150 C.3    41  HIS41       0.1621
     23  C         12.7080    6.7190   13.6460 C.2    41  HIS41       0.2264
     24  O         12.1130    5.8660   12.9830 O.2    41  HIS41      -0.2867
     25  CB        15.0610    7.5960   13.3510 C.3    41  HIS41       0.0745
     26  CG        14.9560    7.7000   11.8670 C.ar   41  HIS41       0.0817
     27  ND1       13.9640    8.4260   11.2430 N.ar   41  HIS41      -0.2268
     28  CD2       15.7660    7.2660   10.8830 C.ar   41  HIS41       0.1154
     29  CE1       14.1650    8.4100    9.9360 C.ar   41  HIS41       0.1986
     30  NE2       15.2750    7.7340    9.6950 N.ar   41  HIS41      -0.2212
     31  N         10.9070    3.6460   11.6120 N.3    62  GLU62      -0.1245
     32  CA        11.4700    2.9980   10.4340 C.3    62  GLU62       0.1567
     33  C         12.8070    2.3400   10.7740 C.2    62  GLU62       0.2260
     34  O         13.5920    2.8390   11.5960 O.2    62  GLU62      -0.2867
     35  CB        11.6750    3.9580    9.2600 C.3    62  GLU62       0.0388
     36  CG        12.5330    5.1680    9.5090 C.3    62  GLU62       0.1160
     37  CD        13.0650    5.7930    8.1960 C.2    62  GLU62       0.3649
     38  OE1       13.8460    5.1520    7.5090 O.co2  62  GLU62      -0.2457
     39  OE2       12.7450    6.9640    7.9410 O.co2  62  GLU62      -0.2457
     40  N         30.1210    2.3890    9.6570 N.3    78  TYR78      -0.1241
     41  CA        29.0000    2.6630    8.7550 C.3    78  TYR78       0.1605
     42  C         28.7490    1.5310    7.7810 C.2    78  TYR78       0.2264
     43  O         29.6810    1.0200    7.1660 O.2    78  TYR78      -0.2867
     44  CB        29.2410    3.9600    7.9620 C.3    78  TYR78       0.0534
     45  CG        28.1500    4.2580    6.9430 C.ar   78  TYR78      -0.0201
     46  CD1       26.9410    4.8400    7.3080 C.ar   78  TYR78      -0.0009
     47  CD2       28.3090    3.8780    5.6130 C.ar   78  TYR78      -0.0009
     48  CE1       25.9300    5.0850    6.3520 C.ar   78  TYR78       0.0417
     49  CE2       27.2970    4.1000    4.6600 C.ar   78  TYR78       0.0417
     50  CZ        26.1330    4.7000    5.0400 C.ar   78  TYR78       0.1957
     51  OH        25.1400    4.9150    4.1030 O.3    78  TYR78      -0.2866
     52  N         25.8220    0.8820    4.5820 N.3    80  SER80      -0.1203
     53  CA        24.6890    1.4710    3.9010 C.3    80  SER80       0.2005
     54  C         23.3850    0.7680    4.2460 C.2    80  SER80       0.2461
     55  O         23.3220   -0.4670    4.2010 O.2    80  SER80      -0.2732
     56  CB        24.8570    1.4130    2.3820 C.3    80  SER80       0.2103
     57  OG        23.6290    1.8150    1.7410 O.3    80  SER80      -0.2182
     58  N         22.3120    1.5370    4.5170 N.am   81  PRO81      -0.2717
     59  CA        20.9980    0.9310    4.7900 C.3    81  PRO81       0.1536
     60  C         20.2240    0.5650    3.5380 C.2    81  PRO81       0.2599
     61  O         19.1780   -0.0720    3.6300 O.2    81  PRO81      -0.2715
     62  CB        20.2870    2.0230    5.5550 C.3    81  PRO81       0.0310
     63  CG        20.8140    3.2880    4.9510 C.3    81  PRO81       0.0237
     64  CD        22.2870    2.9890    4.7440 C.3    81  PRO81       0.0939
     65  N         20.7100    0.9700    2.3680 N.am   82  GLY82      -0.1941
     66  CA        19.9580    0.8330    1.1450 C.3    82  GLY82       0.1998
     67  C         18.6640    1.6220    1.2080 C.2    82  GLY82       0.2480
     68  O         18.4510    2.4730    2.0650 O.2    82  GLY82      -0.2729
     69  N         17.7710    1.3620    0.2310 N.am   83  PRO83      -0.2726
     70  CA        16.5790    2.2010    0.0600 C.3    83  PRO83       0.1402
     71  C         15.3220    1.7030    0.7580 C.2    83  PRO83       0.2269
     72  O         14.3330    2.4480    0.7580 O.2    83  PRO83      -0.2865
     73  CB        16.3770    2.1730   -1.4580 C.3    83  PRO83       0.0296
     74  CG        16.8410    0.8020   -1.8640 C.3    83  PRO83       0.0237
     75  CD        18.0220    0.5040   -0.9430 C.3    83  PRO83       0.0939
     76  N         12.6700    0.0080    3.6940 N.3    85  ARG85      -0.1245
     77  CA        12.4120    0.1360    5.1450 C.3    85  ARG85       0.1563
     78  C         11.1940   -0.6690    5.5690 C.2    85  ARG85       0.2260
     79  O         10.2280   -0.8060    4.8150 O.2    85  ARG85      -0.2867
     80  CB        12.1680    1.5870    5.5670 C.3    85  ARG85       0.0307
     81  CG        13.2260    2.5970    5.1400 C.3    85  ARG85       0.0489
     82  CD        14.4950    2.5670    5.9930 C.3    85  ARG85       0.2205
     83  NE        15.4870    3.5340    5.4960 N.pl3  85  ARG85      -0.0865
     84  CZ        16.4640    3.2280    4.6450 C.cat  85  ARG85       0.5346
     85  NH1       16.6590    1.9880    4.2240 N.pl3  85  ARG85       0.1354
     86  NH2       17.2850    4.1580    4.2000 N.pl3  85  ARG85       0.1354
     87  N         12.4850    4.1320   -0.6660 N.3   101  HIS101     -0.1241
     88  CA        12.9070    5.3280   -1.3540 C.3   101  HIS101      0.1621
     89  C         12.9470    5.1420   -2.8680 C.2   101  HIS101      0.2264
     90  O         12.9650    6.1220   -3.6180 O.2   101  HIS101     -0.2867
     91  CB        14.2800    5.7780   -0.8600 C.3   101  HIS101      0.0745
     92  CG        14.3260    6.1680    0.5840 C.ar  101  HIS101      0.0817
     93  ND1       13.7420    7.3250    1.0730 N.ar  101  HIS101     -0.2268
     94  CD2       15.0400    5.6600    1.6130 C.ar  101  HIS101      0.1154
     95  CE1       14.0820    7.4870    2.3420 C.ar  101  HIS101      0.1986
     96  NE2       14.8540    6.4790    2.7010 N.ar  101  HIS101     -0.2212
     97  N         13.6430   12.5310   -3.3670 N.3   107  TYR107     -0.1227
     98  CA        14.8290   11.7010   -3.1160 C.3   107  TYR107      0.1736
     99  C         15.0240   11.3730   -1.6520 C.2   107  TYR107      0.2595
    100  O         15.7350   10.4140   -1.3570 O.2   107  TYR107     -0.2718
    101  CB        16.1000   12.3220   -3.7310 C.3   107  TYR107      0.0548
    102  CG        15.8650   12.4350   -5.1870 C.ar  107  TYR107     -0.0200
    103  CD1       15.9130   11.3160   -6.0000 C.ar  107  TYR107     -0.0009
    104  CD2       15.4700   13.6350   -5.7620 C.ar  107  TYR107     -0.0009
    105  CE1       15.5720   11.3790   -7.3380 C.ar  107  TYR107      0.0417
    106  CE2       15.1250   13.7090   -7.0800 C.ar  107  TYR107      0.0417
    107  CZ        15.1490   12.5990   -7.8710 C.ar  107  TYR107      0.1957
    108  OH        14.7650   12.7070   -9.1900 O.3   107  TYR107     -0.2866
    109  N         14.4050   12.1470   -0.7620 N.am  108  ASP108     -0.1974
    110  CA        14.4680   11.8930    0.6720 C.3   108  ASP108      0.1709
    111  C         13.3170   11.0370    1.1650 C.2   108  ASP108      0.2293
    112  O         13.4150   10.4630    2.2480 O.2   108  ASP108     -0.2864
    113  CB        14.5390   13.2270    1.4530 C.3   108  ASP108      0.1436
    114  CG        13.3790   14.1540    1.1320 C.2   108  ASP108      0.3671
    115  OD1       13.0860   14.3850   -0.0700 O.co2 108  ASP108     -0.2456
    116  OD2       12.7550   14.6750    2.0810 O.co2 108  ASP108     -0.2456
    117  N          9.4610    8.6180    0.5180 N.3   110  PHE110     -0.1241
    118  CA         9.0320    7.2170    0.4120 C.3   110  PHE110      0.1605
    119  C          7.8440    7.0480   -0.5110 C.2   110  PHE110      0.2264
    120  O          7.0340    7.9530   -0.7100 O.2   110  PHE110     -0.2867
    121  CB         8.6300    6.7000    1.7990 C.3   110  PHE110      0.0534
    122  CG         9.7710    6.5130    2.7590 C.ar  110  PHE110     -0.0203
    123  CD1       10.7500    5.6000    2.4590 C.ar  110  PHE110     -0.0042
    124  CD2        9.8650    7.2340    3.9420 C.ar  110  PHE110     -0.0042
    125  CE1       11.7930    5.3810    3.3410 C.ar  110  PHE110     -0.0003
    126  CE2       10.9170    7.0350    4.7990 C.ar  110  PHE110     -0.0003
    127  CZ        11.8710    6.1040    4.5070 C.ar  110  PHE110     -0.0000
@<TRIPOS>BOND
     1   108   107    1
     2   107   105   ar
     3   107   106   ar
     4   105   103   ar
     5   106   104   ar
     6   103   102   ar
     7   104   102   ar
     8   102   101    1
     9   101    98    1
    10    90    89    2
    11    97    98    1
    12    98    99    1
    13    89    88    1
    14    74    73    1
    15    74    75    1
    16    99   100    2
    17    99   109   am
    18    73    70    1
    19    88    91    1
    20    88    87    1
    21    75    69    1
    22    91    92    1
    23   109   110    1
    24   120   119    2
    25   119   118    1
    26   115   114   ar
    27    70    69    1
    28    70    71    1
    29    69    67   am
    30   118   117    1
    31   118   121    1
    32    92    93   ar
    33    92    94   ar
    34   110   111    1
    35   110   113    1
    36    72    71    2
    37    93    95   ar
    38   114   113    1
    39   114   116   ar
    40    66    67    1
    41    66    65    1
    42   111   112    2
    43    67    68    2
    44    94    96   ar
    45    57    56    1
    46   121   122    1
    47    95    96   ar
    48    65    60   am
    49    56    53    1
    50   123   122   ar
    51   123   125   ar
    52   122   124   ar
    53   125   127   ar
    54    60    61    2
    55    60    59    1
    56    76    77    1
    57    53    54    1
    58    53    52    1
    59   124   126   ar
    60    51    50    1
    61    86    84    1
    62    55    54    2
    63    85    84    1
    64    54    58   am
    65   127   126   ar
    66    58    64    1
    67    58    59    1
    68    84    83    2
    69    49    50   ar
    70    49    47   ar
    71    64    63    1
    72    59    62    1
    73    79    78    2
    74    63    62    1
    75    50    48   ar
    76    81    80    1
    77    81    82    1
    78    77    80    1
    79    77    78    1
    80    83    82    1
    81    47    45   ar
    82    48    46   ar
    83    20    19    1
    84    45    46   ar
    85    45    44    1
    86    43    42    2
    87    38    37   ar
    88    42    41    1
    89    39    37   ar
    90    44    41    1
    91    19    18   ar
    92    19    17   ar
    93    37    36    1
    94    18    16   ar
    95    17    15   ar
    96    41    40    1
    97    35    36    1
    98    35    32    1
    99    30    29   ar
   100    30    28   ar
   101    16    14   ar
   102    15    14   ar
   103    29    27   ar
   104     8     6   am
   105    14    13    1
   106    32    33    1
   107    32    31    1
   108    33    34    2
   109    28    26   ar
   110     6     5    1
   111     6     7    2
   112    27    26   ar
   113     5     2    1
   114    13    10    1
   115    26    25    1
   116     4     3    2
   117     3     2    1
   118     3     9   am
   119     2     1    1
   120    10     9    1
   121    10    11    1
   122    24    23    2
   123    25    22    1
   124    23    22    1
   125    21    22    1
   126    11    12    2
