@<TRIPOS>MOLECULE
tmp/3ahxD00.pdb
 99 97 0 0 0
SMALL
GASTEIGER

@<TRIPOS>ATOM
      1  N         80.5990   63.4360 -278.1300 N.3    46  LYS46      -0.1231
      2  CA        80.1900   64.4580 -277.1680 C.3    46  LYS46       0.1693
      3  C         78.9820   64.0770 -276.3110 C.2    46  LYS46       0.2592
      4  O         78.4090   64.9290 -275.6370 O.2    46  LYS46      -0.2718
      5  CB        79.9080   65.7860 -277.8820 C.3    46  LYS46       0.0285
      6  CG        80.9920   66.3190 -278.8180 C.3    46  LYS46       0.0035
      7  CD        82.4000   66.3110 -278.2240 C.3    46  LYS46       0.0206
      8  CE        83.3700   66.8850 -279.2570 C.3    46  LYS46       0.1093
      9  NZ        84.8090   66.8050 -278.8730 N.3    46  LYS46      -0.1314
     10  N         78.6080   62.8000 -276.3280 N.am   47  MET47      -0.1965
     11  CA        77.4120   62.3370 -275.6250 C.3    47  MET47       0.1736
     12  C         76.1300   62.9930 -276.1360 C.2    47  MET47       0.2616
     13  O         75.1400   63.0880 -275.4040 O.2    47  MET47      -0.2715
     14  CB        77.5730   62.5720 -274.1210 C.3    47  MET47       0.0427
     15  CG        78.6460   61.7080 -273.5110 C.3    47  MET47       0.0599
     16  SD        77.8460   60.2330 -272.8760 S.3    47  MET47      -0.1393
     17  CE        77.1480   60.8700 -271.3490 C.3    47  MET47       0.0692
     18  N         76.1420   63.4030 -277.4040 N.am   48  HIS48      -0.1959
     19  CA        74.9840   64.0460 -278.0040 C.3    48  HIS48       0.1787
     20  C         73.8890   62.9830 -278.1500 C.2    48  HIS48       0.2620
     21  O         74.1680   61.7810 -278.1920 O.2    48  HIS48      -0.2715
     22  CB        75.2860   64.6610 -279.3770 C.3    48  HIS48       0.0785
     23  CG        76.1240   65.9040 -279.3610 C.ar   48  HIS48       0.0821
     24  ND1       76.2460   66.7420 -278.2710 N.ar   48  HIS48      -0.2267
     25  CD2       76.8330   66.4870 -280.3550 C.ar   48  HIS48       0.1154
     26  CE1       77.0280   67.7630 -278.5800 C.ar   48  HIS48       0.1986
     27  NE2       77.3950   67.6320 -279.8430 N.ar   48  HIS48      -0.2212
     28  N         72.6360   63.4200 -278.1560 N.am   49  ASN49      -0.1972
     29  CA        71.5270   62.4910 -278.3570 C.3    49  ASN49       0.1688
     30  C         70.4020   63.1810 -279.1230 C.2    49  ASN49       0.2292
     31  O         70.4460   64.3960 -279.3270 O.2    49  ASN49      -0.2864
     32  CB        71.0430   61.9220 -277.0100 C.3    49  ASN49       0.1181
     33  CG        70.5080   62.9950 -276.0910 C.2    49  ASN49       0.2629
     34  OD1       69.6240   63.7550 -276.4800 O.2    49  ASN49      -0.2716
     35  ND2       71.0150   63.0460 -274.8610 N.am   49  ASN49      -0.0877
     36  N         66.0400   66.0320 -278.0960 N.3    52  ILE52      -0.1231
     37  CA        65.4430   67.3020 -278.5070 C.3    52  ILE52       0.1692
     38  C         65.7370   67.6090 -279.9750 C.2    52  ILE52       0.2591
     39  O         64.8270   67.9740 -280.7150 O.2    52  ILE52      -0.2718
     40  CB        65.8620   68.4650 -277.5750 C.3    52  ILE52       0.0266
     41  CG1       65.3550   68.1900 -276.1540 C.3    52  ILE52       0.0019
     42  CG2       65.2750   69.7800 -278.0700 C.3    52  ILE52       0.0020
     43  CD1       66.1020   68.9470 -275.0600 C.3    52  ILE52       0.0001
     44  N         66.9970   67.4730 -280.3870 N.am   53  ALA53      -0.1980
     45  CA        67.4040   67.6670 -281.7750 C.3    53  ALA53       0.1597
     46  C         66.9700   69.0390 -282.2880 C.2    53  ALA53       0.2287
     47  O         67.2530   70.0440 -281.6280 O.2    53  ALA53      -0.2864
     48  CB        66.8890   66.5180 -282.6610 C.3    53  ALA53       0.0319
     49  N         75.8590   66.2810 -283.1910 N.3   410  TYR410     -0.1227
     50  CA        75.5840   67.5570 -283.8560 C.3   410  TYR410      0.1736
     51  C         76.8000   68.2600 -284.4650 C.2   410  TYR410      0.2595
     52  O         76.6640   69.3150 -285.0880 O.2   410  TYR410     -0.2718
     53  CB        74.8530   68.5050 -282.8900 C.3   410  TYR410      0.0548
     54  CG        73.5500   67.8920 -282.4310 C.ar  410  TYR410     -0.0200
     55  CD1       72.4340   67.9250 -283.2570 C.ar  410  TYR410     -0.0009
     56  CD2       73.4540   67.2330 -281.2090 C.ar  410  TYR410     -0.0009
     57  CE1       71.2550   67.3350 -282.8890 C.ar  410  TYR410      0.0417
     58  CE2       72.2650   66.6350 -280.8170 C.ar  410  TYR410      0.0417
     59  CZ        71.1770   66.6890 -281.6680 C.ar  410  TYR410      0.1957
     60  OH        69.9880   66.1030 -281.3180 O.3   410  TYR410     -0.2866
     61  N         77.9720   67.6460 -284.3480 N.am  411  GLU411     -0.1979
     62  CA        79.2300   68.2480 -284.7990 C.3   411  GLU411      0.1602
     63  C         79.3570   68.3460 -286.3170 C.2   411  GLU411      0.2287
     64  O         80.1700   69.1170 -286.8280 O.2   411  GLU411     -0.2864
     65  CB        80.4190   67.4730 -284.2170 C.3   411  GLU411      0.0415
     66  CG        80.5000   67.4480 -282.6920 C.3   411  GLU411      0.1163
     67  CD        80.7960   68.8210 -282.1110 C.2   411  GLU411      0.3649
     68  OE1       81.9480   69.2990 -282.2130 O.co2 411  GLU411     -0.2457
     69  OE2       79.8630   69.4310 -281.5500 O.co2 411  GLU411     -0.2457
     70  N         71.1510   75.4560 -282.0470 N.3   421  TYR421     -0.1227
     71  CA        70.5630   74.5490 -281.0660 C.3   421  TYR421      0.1736
     72  C         70.2190   75.2060 -279.7370 C.2   421  TYR421      0.2595
     73  O         69.3710   74.6990 -279.0020 O.2   421  TYR421     -0.2718
     74  CB        71.4400   73.3130 -280.8380 C.3   421  TYR421      0.0548
     75  CG        71.5400   72.4890 -282.0970 C.ar  421  TYR421     -0.0200
     76  CD1       70.4310   71.7970 -282.5750 C.ar  421  TYR421     -0.0009
     77  CD2       72.7210   72.4450 -282.8270 C.ar  421  TYR421     -0.0009
     78  CE1       70.5040   71.0500 -283.7370 C.ar  421  TYR421      0.0417
     79  CE2       72.7990   71.7080 -283.9890 C.ar  421  TYR421      0.0417
     80  CZ        71.6870   71.0140 -284.4440 C.ar  421  TYR421      0.1957
     81  OH        71.7430   70.2800 -285.6100 O.3   421  TYR421     -0.2866
     82  N         70.8730   76.3260 -279.4360 N.am  422  LYS422     -0.1980
     83  CA        70.5750   77.0700 -278.2190 C.3   422  LYS422      0.1596
     84  C         69.1910   77.7220 -278.2380 C.2   422  LYS422      0.2287
     85  O         68.5460   77.8210 -277.1920 O.2   422  LYS422     -0.2864
     86  CB        71.6230   78.1550 -277.9560 C.3   422  LYS422      0.0298
     87  CG        73.0520   77.6550 -277.7930 C.3   422  LYS422      0.0038
     88  CD        74.0010   78.8460 -277.7850 C.3   422  LYS422      0.0206
     89  CE        75.4380   78.4080 -277.9980 C.3   422  LYS422      0.1093
     90  NZ        76.3920   79.5420 -277.8570 N.3   422  LYS422     -0.1314
     91  N         66.8980   77.2240 -281.1760 N.3   424  GLN424     -0.1245
     92  CA        66.1740   76.6000 -282.2840 C.3   424  GLN424      0.1566
     93  C         65.9430   77.4990 -283.5000 C.2   424  GLN424      0.2260
     94  O         65.1630   77.1450 -284.3880 O.2   424  GLN424     -0.2867
     95  CB        64.8810   75.9080 -281.8380 C.3   424  GLN424      0.0367
     96  CG        65.1190   74.7390 -280.8970 C.3   424  GLN424      0.0905
     97  CD        65.7800   73.5460 -281.5640 C.2   424  GLN424      0.2608
     98  OE1       65.9110   73.4920 -282.7890 O.2   424  GLN424     -0.2717
     99  NE2       66.1980   72.5770 -280.7570 N.am  424  GLN424     -0.0878
@<TRIPOS>BOND
     1    64    63    2
     2    63    62    1
     3    81    80    1
     4    52    51    2
     5    62    61    1
     6    62    65    1
     7    51    61   am
     8    51    50    1
     9    80    79   ar
    10    80    78   ar
    11    94    93    2
    12    65    66    1
    13    79    77   ar
    14    50    49    1
    15    50    53    1
    16    78    76   ar
    17    93    92    1
    18    55    57   ar
    19    55    54   ar
    20    53    54    1
    21    57    59   ar
    22    77    75   ar
    23    98    97    2
    24    66    67    1
    25    48    45    1
    26    76    75   ar
    27    54    56   ar
    28    46    45    1
    29    46    47    2
    30    92    95    1
    31    92    91    1
    32    68    67   ar
    33    67    69   ar
    34    75    74    1
    35    70    71    1
    36    95    96    1
    37    45    44    1
    38    59    60    1
    39    59    58   ar
    40    97    96    1
    41    97    99   am
    42    56    58   ar
    43    71    74    1
    44    71    72    1
    45    39    38    2
    46    44    38   am
    47    25    27   ar
    48    25    23   ar
    49    38    37    1
    50    27    26   ar
    51    72    82   am
    52    72    73    2
    53    82    83    1
    54    22    23    1
    55    22    19    1
    56    23    24   ar
    57    31    30    2
    58     8     9    1
    59     8     7    1
    60    30    29    1
    61     6     7    1
    62     6     5    1
    63    26    24   ar
    64    37    36    1
    65    37    40    1
    66    29    28    1
    67    29    32    1
    68    84    83    1
    69    84    85    2
    70    83    86    1
    71    21    20    2
    72    28    20   am
    73    20    19    1
    74     1     2    1
    75    42    40    1
    76    19    18    1
    77    89    90    1
    78    89    88    1
    79    86    87    1
    80     5     2    1
    81    87    88    1
    82    40    41    1
    83    18    12   am
    84     2     3    1
    85    32    33    1
    86    34    33    2
    87    10     3   am
    88    10    11    1
    89     3     4    2
    90    41    43    1
    91    12    11    1
    92    12    13    2
    93    33    35   am
    94    11    14    1
    95    14    15    1
    96    15    16    1
    97    16    17    1
