@<TRIPOS>MOLECULE
tmp/3ahyB00.pdb
 158 158 0 0 0
SMALL
GASTEIGER

@<TRIPOS>ATOM
      1  N         18.6550  -78.6330  -33.7050 N.3    17  GLN17      -0.1245
      2  CA        18.3430  -77.3260  -34.2720 C.3    17  GLN17       0.1566
      3  C         18.8220  -76.1440  -33.4260 C.2    17  GLN17       0.2260
      4  O         19.0070  -75.0470  -33.9510 O.2    17  GLN17      -0.2867
      5  CB        16.8460  -77.2260  -34.5850 C.3    17  GLN17       0.0367
      6  CG        16.3200  -78.3850  -35.4440 C.3    17  GLN17       0.0905
      7  CD        14.8800  -78.1850  -35.8850 C.2    17  GLN17       0.2608
      8  OE1       13.9820  -78.8990  -35.4330 O.2    17  GLN17      -0.2717
      9  NE2       14.6530  -77.2330  -36.7800 N.am   17  GLN17      -0.0878
     10  N         14.3370  -86.7240  -31.9760 N.3   120  HIS120     -0.1226
     11  CA        14.0310  -85.6600  -32.9170 C.3   120  HIS120      0.1752
     12  C         15.0300  -85.7420  -34.0720 C.2   120  HIS120      0.2596
     13  O         15.7150  -84.7690  -34.3800 O.2   120  HIS120     -0.2718
     14  CB        14.0190  -84.2910  -32.2300 C.3   120  HIS120      0.0759
     15  CG        13.1510  -83.2860  -32.9210 C.ar  120  HIS120      0.0818
     16  ND1       12.0920  -82.6660  -32.2920 N.ar  120  HIS120     -0.2268
     17  CD2       13.1460  -82.8350  -34.1960 C.ar  120  HIS120      0.1154
     18  CE1       11.5000  -81.8450  -33.1390 C.ar  120  HIS120      0.1986
     19  NE2       12.1180  -81.9300  -34.3030 N.ar  120  HIS120     -0.2212
     20  N         15.1270  -86.9390  -34.6500 N.am  121  TRP121     -0.1976
     21  CA        15.7670  -87.2160  -35.9490 C.3   121  TRP121      0.1640
     22  C         17.2610  -87.4830  -35.9100 C.2   121  TRP121      0.2290
     23  O         17.8360  -87.9260  -36.9070 O.2   121  TRP121     -0.2864
     24  CB        15.5500  -86.0890  -36.9630 C.3   121  TRP121      0.0576
     25  CG        14.1320  -85.7400  -37.2660 C.ar  121  TRP121      0.0006
     26  CD1       12.9980  -86.2720  -36.7010 C.ar  121  TRP121      0.0946
     27  CD2       13.6920  -84.7100  -38.1520 C.ar  121  TRP121      0.0152
     28  NE1       11.8790  -85.6280  -37.1870 N.ar  121  TRP121     -0.2442
     29  CE2       12.2810  -84.6810  -38.0960 C.ar  121  TRP121      0.0810
     30  CE3       14.3600  -83.8220  -39.0090 C.ar  121  TRP121      0.0012
     31  CZ2       11.5250  -83.7830  -38.8530 C.ar  121  TRP121      0.0191
     32  CZ3       13.6010  -82.9380  -39.7680 C.ar  121  TRP121      0.0001
     33  CH2       12.2040  -82.9220  -39.6800 C.ar  121  TRP121      0.0015
     34  N          9.5350  -87.5120  -32.8020 N.3   165  ASN165     -0.1225
     35  CA         8.9490  -86.3790  -33.4930 C.3   165  ASN165      0.1785
     36  C          8.8610  -86.6360  -34.9890 C.2   165  ASN165      0.2597
     37  O          9.8790  -86.8650  -35.6340 O.2   165  ASN165     -0.2718
     38  CB         9.8440  -85.1530  -33.3180 C.3   165  ASN165      0.1169
     39  CG         9.3130  -83.9540  -34.0580 C.2   165  ASN165      0.2627
     40  OD1        8.4270  -83.2480  -33.5700 O.2   165  ASN165     -0.2716
     41  ND2        9.8890  -83.6910  -35.2270 N.am  165  ASN165     -0.0877
     42  N          7.6640  -86.5240  -35.5590 N.am  166  GLU166     -0.1979
     43  CA         7.4870  -86.6460  -37.0080 C.3   166  GLU166      0.1602
     44  C          8.2050  -87.8300  -37.6790 C.2   166  GLU166      0.2287
     45  O          9.1110  -87.6380  -38.4920 O.2   166  GLU166     -0.2864
     46  CB         7.8560  -85.3220  -37.6920 C.3   166  GLU166      0.0415
     47  CG         6.9760  -84.1640  -37.2780 C.3   166  GLU166      0.1163
     48  CD         7.4880  -82.8000  -37.7020 C.2   166  GLU166      0.3649
     49  OE1        8.7230  -82.5960  -37.7470 O.co2 166  GLU166     -0.2457
     50  OE2        6.6350  -81.9140  -37.9290 O.co2 166  GLU166     -0.2457
     51  N          8.8880  -87.6400  -41.4020 N.3   169  CYS169     -0.1235
     52  CA        10.0330  -86.8860  -41.8960 C.3   169  CYS169      0.1677
     53  C         11.2980  -87.7100  -41.7730 C.2   169  CYS169      0.2270
     54  O         12.2070  -87.5540  -42.5820 O.2   169  CYS169     -0.2867
     55  CB        10.2020  -85.5650  -41.1560 C.3   169  CYS169      0.0956
     56  SG         8.8090  -84.4690  -41.4190 S.3   169  CYS169     -0.0801
     57  N         16.6480  -85.3830  -46.4330 N.3   180  PHE180     -0.1241
     58  CA        17.0350  -85.3300  -45.0240 C.3   180  PHE180      0.1605
     59  C         17.9830  -86.4890  -44.7240 C.2   180  PHE180      0.2264
     60  O         18.0160  -87.4690  -45.4730 O.2   180  PHE180     -0.2867
     61  CB        15.8300  -85.4720  -44.0900 C.3   180  PHE180      0.0534
     62  CG        14.9540  -84.2510  -43.9710 C.ar  180  PHE180     -0.0203
     63  CD1       15.3030  -83.0190  -44.5080 C.ar  180  PHE180     -0.0042
     64  CD2       13.7720  -84.3450  -43.2520 C.ar  180  PHE180     -0.0042
     65  CE1       14.4790  -81.9150  -44.3410 C.ar  180  PHE180     -0.0003
     66  CE2       12.9500  -83.2480  -43.0850 C.ar  180  PHE180     -0.0003
     67  CZ        13.2960  -82.0370  -43.6290 C.ar  180  PHE180     -0.0000
     68  N          3.1120  -85.3310  -37.6770 N.3   226  ASN226     -0.1240
     69  CA         2.7290  -84.1310  -38.4170 C.3   226  ASN226      0.1653
     70  C          1.6050  -84.4720  -39.4020 C.2   226  ASN226      0.2266
     71  O          1.2450  -85.6350  -39.5660 O.2   226  ASN226     -0.2867
     72  CB         3.9240  -83.4470  -39.1010 C.3   226  ASN226      0.1155
     73  CG         4.6850  -84.3490  -40.0530 C.2   226  ASN226      0.2627
     74  OD1        4.7530  -85.5660  -39.8900 O.2   226  ASN226     -0.2716
     75  ND2        5.3220  -83.7250  -41.0320 N.am  226  ASN226     -0.0877
     76  N          0.9220  -77.3680  -39.6630 N.3   299  TYR299     -0.1241
     77  CA         1.3560  -76.0880  -40.2110 C.3   299  TYR299      0.1605
     78  C          0.4810  -75.4690  -41.2960 C.2   299  TYR299      0.2264
     79  O          0.3570  -74.2480  -41.3640 O.2   299  TYR299     -0.2867
     80  CB         2.7610  -76.2490  -40.7980 C.3   299  TYR299      0.0534
     81  CG         3.8320  -76.4210  -39.7470 C.ar  299  TYR299     -0.0201
     82  CD1        4.4990  -75.3050  -39.2470 C.ar  299  TYR299     -0.0009
     83  CD2        4.1700  -77.6820  -39.2460 C.ar  299  TYR299     -0.0009
     84  CE1        5.4740  -75.4180  -38.2780 C.ar  299  TYR299      0.0417
     85  CE2        5.1450  -77.8010  -38.2490 C.ar  299  TYR299      0.0417
     86  CZ         5.7770  -76.6620  -37.7750 C.ar  299  TYR299      0.1957
     87  OH         6.7580  -76.7140  -36.8110 O.3   299  TYR299     -0.2866
     88  N          6.4060  -74.9920  -48.9500 N.3   340  TRP340     -0.1241
     89  CA         5.3310  -75.9070  -48.6230 C.3   340  TRP340      0.1605
     90  C          4.3090  -75.3350  -47.6440 C.2   340  TRP340      0.2264
     91  O          3.2370  -75.9270  -47.4560 O.2   340  TRP340     -0.2867
     92  CB         5.9770  -77.1650  -48.0430 C.3   340  TRP340      0.0550
     93  CG         6.9100  -76.9050  -46.8910 C.ar  340  TRP340      0.0003
     94  CD1        8.2680  -76.7260  -46.9480 C.ar  340  TRP340      0.0946
     95  CD2        6.5560  -76.8450  -45.5020 C.ar  340  TRP340      0.0152
     96  NE1        8.7740  -76.5370  -45.6780 N.ar  340  TRP340     -0.2442
     97  CE2        7.7440  -76.6010  -44.7750 C.ar  340  TRP340      0.0810
     98  CE3        5.3490  -76.9510  -44.8070 C.ar  340  TRP340      0.0012
     99  CZ2        7.7590  -76.4750  -43.3850 C.ar  340  TRP340      0.0191
    100  CZ3        5.3630  -76.8280  -43.4230 C.ar  340  TRP340      0.0001
    101  CH2        6.5620  -76.5920  -42.7290 C.ar  340  TRP340      0.0015
    102  N          3.7230  -78.6910  -32.1650 N.3   368  GLU368     -0.1245
    103  CA         4.3230  -77.6670  -33.0330 C.3   368  GLU368      0.1567
    104  C          3.2650  -76.9630  -33.8630 C.2   368  GLU368      0.2260
    105  O          2.3860  -77.5970  -34.4590 O.2   368  GLU368     -0.2867
    106  CB         5.3630  -78.1970  -34.0300 C.3   368  GLU368      0.0388
    107  CG         6.6250  -78.8220  -33.4360 C.3   368  GLU368      0.1160
    108  CD         7.6490  -79.2810  -34.4610 C.2   368  GLU368      0.3649
    109  OE1        7.5760  -78.9450  -35.6640 O.co2 368  GLU368     -0.2457
    110  OE2        8.5810  -79.9920  -34.0520 O.co2 368  GLU368     -0.2457
    111  N          6.1420  -73.4130  -32.4090 N.3   418  TRP418     -0.1241
    112  CA         7.4220  -73.6860  -33.0550 C.3   418  TRP418      0.1605
    113  C          7.8390  -72.3780  -33.7280 C.2   418  TRP418      0.2264
    114  O          7.1650  -71.9370  -34.6760 O.2   418  TRP418     -0.2867
    115  CB         7.3050  -74.7980  -34.1000 C.3   418  TRP418      0.0550
    116  CG         8.6580  -75.0660  -34.6870 C.ar  418  TRP418      0.0003
    117  CD1        9.1960  -74.4830  -35.7970 C.ar  418  TRP418      0.0946
    118  CD2        9.6750  -75.9030  -34.1340 C.ar  418  TRP418      0.0152
    119  NE1       10.4910  -74.9270  -35.9830 N.ar  418  TRP418     -0.2442
    120  CE2       10.7980  -75.8130  -34.9830 C.ar  418  TRP418      0.0810
    121  CE3        9.7310  -76.7520  -33.0230 C.ar  418  TRP418      0.0012
    122  CZ2       11.9800  -76.5190  -34.7350 C.ar  418  TRP418      0.0191
    123  CZ3       10.8930  -77.4560  -32.7780 C.ar  418  TRP418      0.0001
    124  CH2       12.0080  -77.3290  -33.6260 C.ar  418  TRP418      0.0015
    125  N         17.0120  -74.7910  -39.5350 N.3   425  GLU425     -0.1231
    126  CA        15.8840  -75.4330  -40.2140 C.3   425  GLU425      0.1699
    127  C         16.2710  -76.5180  -41.2190 C.2   425  GLU425      0.2592
    128  O         15.9130  -76.4700  -42.3940 O.2   425  GLU425     -0.2718
    129  CB        14.9220  -74.3870  -40.8040 C.3   425  GLU425      0.0402
    130  CG        13.6250  -74.8930  -41.4650 C.3   425  GLU425      0.1161
    131  CD        12.7940  -75.8770  -40.6440 C.2   425  GLU425      0.3649
    132  OE1       12.0800  -76.7070  -41.2550 O.co2 425  GLU425     -0.2457
    133  OE2       12.8140  -75.8310  -39.3920 O.co2 425  GLU425     -0.2457
    134  N         17.0250  -77.5050  -40.7500 N.am  426  TRP426     -0.1976
    135  CA        17.3440  -78.7060  -41.5100 C.3   426  TRP426      0.1640
    136  C         17.9140  -78.4000  -42.8900 C.2   426  TRP426      0.2290
    137  O         18.9150  -77.6840  -42.9880 O.2   426  TRP426     -0.2864
    138  CB        16.1480  -79.6640  -41.5440 C.3   426  TRP426      0.0576
    139  CG        15.5780  -79.9540  -40.1720 C.ar  426  TRP426      0.0006
    140  CD1       14.3610  -79.5710  -39.6990 C.ar  426  TRP426      0.0946
    141  CD2       16.2090  -80.6750  -39.1050 C.ar  426  TRP426      0.0152
    142  NE1       14.1760  -80.0360  -38.4160 N.ar  426  TRP426     -0.2442
    143  CE2       15.3100  -80.6930  -38.0200 C.ar  426  TRP426      0.0810
    144  CE3       17.4460  -81.3120  -38.9620 C.ar  426  TRP426      0.0012
    145  CZ2       15.5940  -81.3450  -36.8200 C.ar  426  TRP426      0.0191
    146  CZ3       17.7330  -81.9530  -37.7650 C.ar  426  TRP426      0.0001
    147  CH2       16.8170  -81.9390  -36.7020 C.ar  426  TRP426      0.0015
    148  N         11.7950  -69.6520  -38.0440 N.3   434  PHE434     -0.1241
    149  CA        10.5110  -69.9730  -37.4210 C.3   434  PHE434      0.1605
    150  C         10.3740  -69.3880  -36.0120 C.2   434  PHE434      0.2264
    151  O          9.3500  -69.5740  -35.3660 O.2   434  PHE434     -0.2867
    152  CB        10.3140  -71.4930  -37.3480 C.3   434  PHE434      0.0534
    153  CG         9.7530  -72.1090  -38.6000 C.ar  434  PHE434     -0.0203
    154  CD1        8.3740  -72.2980  -38.7330 C.ar  434  PHE434     -0.0042
    155  CD2       10.5930  -72.4980  -39.6400 C.ar  434  PHE434     -0.0042
    156  CE1        7.8310  -72.8710  -39.8760 C.ar  434  PHE434     -0.0003
    157  CE2       10.0490  -73.0630  -40.7930 C.ar  434  PHE434     -0.0003
    158  CZ         8.6620  -73.2540  -40.9070 C.ar  434  PHE434     -0.0000
@<TRIPOS>BOND
     1    88    89    1
     2    89    92    1
     3    89    90    1
     4    92    93    1
     5    90    91    2
     6    94    93   ar
     7    94    96   ar
     8    93    95   ar
     9    57    58    1
    10    96    97   ar
    11    95    98   ar
    12    95    97   ar
    13    60    59    2
    14    58    59    1
    15    58    61    1
    16    98   100   ar
    17    97    99   ar
    18    63    65   ar
    19    63    62   ar
    20    65    67   ar
    21    61    62    1
    22    62    64   ar
    23    67    66   ar
    24   100   101   ar
    25    99   101   ar
    26    64    66   ar
    27   137   136    2
    28   136   135    1
    29    54    53    2
    30   128   127    2
    31    52    53    1
    32    52    51    1
    33    52    55    1
    34   138   135    1
    35   138   139    1
    36   135   134    1
    37   130   129    1
    38   130   131    1
    39    56    55    1
    40    79    78    2
    41    78    77    1
    42   132   131   ar
    43   127   134   am
    44   127   126    1
    45    75    73   am
    46   158   157   ar
    47   158   156   ar
    48   129   126    1
    49    80    77    1
    50    80    81    1
    51   157   155   ar
    52   131   133   ar
    53   126   125    1
    54    77    76    1
    55   139   140   ar
    56   139   141   ar
    57    73    74    2
    58    73    72    1
    59   156   154   ar
    60    32    33   ar
    61    32    30   ar
    62    81    82   ar
    63    81    83   ar
    64   140   142   ar
    65    33    31   ar
    66   155   153   ar
    67    71    70    2
    68    70    69    1
    69    82    84   ar
    70    83    85   ar
    71   141   144   ar
    72   141   143   ar
    73    72    69    1
    74    30    27   ar
    75   144   146   ar
    76    31    29   ar
    77   154   153   ar
    78   153   152    1
    79    45    44    2
    80    69    68    1
    81   142   143   ar
    82    84    86   ar
    83    85    86   ar
    84    27    29   ar
    85    27    25   ar
    86    29    28   ar
    87   148   149    1
    88   143   145   ar
    89    50    48   ar
    90    86    87    1
    91   146   147   ar
    92    49    48   ar
    93    48    47    1
    94    46    47    1
    95    46    43    1
    96    44    43    1
    97   149   152    1
    98   149   150    1
    99    25    24    1
   100    25    26   ar
   101    28    26   ar
   102    43    42    1
   103    24    21    1
   104    23    22    2
   105   145   147   ar
   106     9     7   am
   107   150   151    2
   108   119   117   ar
   109   119   120   ar
   110    21    22    1
   111    21    20    1
   112     7     6    1
   113     7     8    2
   114   117   116   ar
   115   109   108   ar
   116    37    36    2
   117    42    36   am
   118     6     5    1
   119    41    39   am
   120    36    35    1
   121   120   122   ar
   122   120   118   ar
   123   122   124   ar
   124   116   118   ar
   125   116   115    1
   126   114   113    2
   127    20    12   am
   128     5     2    1
   129   108   110   ar
   130   108   107    1
   131   105   104    2
   132    13    12    2
   133    19    17   ar
   134    19    18   ar
   135     2     1    1
   136     2     3    1
   137    17    15   ar
   138   118   121   ar
   139   115   112    1
   140    12    11    1
   141    39    40    2
   142    39    38    1
   143   106   107    1
   144   106   103    1
   145     4     3    2
   146   104   103    1
   147   113   112    1
   148   124   123   ar
   149    35    38    1
   150    35    34    1
   151    18    16   ar
   152   112   111    1
   153   103   102    1
   154   121   123   ar
   155    15    16   ar
   156    15    14    1
   157    11    14    1
   158    11    10    1
