@<TRIPOS>MOLECULE
tmp/3ahzA00.pdb
 133 135 0 0 0
SMALL
GASTEIGER

@<TRIPOS>ATOM
      1  N        -35.8450   77.9720   19.5090 N.3    19  GLN19      -0.1245
      2  CA       -34.7230   77.0790   19.7770 C.3    19  GLN19       0.1566
      3  C        -34.8380   76.3380   21.1060 C.2    19  GLN19       0.2260
      4  O        -34.2500   75.2610   21.2400 O.2    19  GLN19      -0.2867
      5  CB       -33.3930   77.8210   19.6530 C.3    19  GLN19       0.0367
      6  CG       -33.2880   78.4580   18.2740 C.3    19  GLN19       0.0905
      7  CD       -31.9110   79.0240   17.9810 C.2    19  GLN19       0.2608
      8  OE1      -31.7230   80.2490   18.0350 O.2    19  GLN19      -0.2717
      9  NE2      -30.9510   78.1480   17.6940 N.am   19  GLN19      -0.0878
     10  N        -37.1270   86.7520   16.6170 N.3   122  HIS122     -0.1226
     11  CA       -36.0170   85.8520   16.3630 C.3   122  HIS122      0.1752
     12  C        -36.4690   84.6800   15.4860 C.2   122  HIS122      0.2596
     13  O        -36.2380   83.5120   15.8210 O.2   122  HIS122     -0.2718
     14  CB       -35.4050   85.4010   17.6940 C.3   122  HIS122      0.0759
     15  CG       -33.9920   84.9080   17.6070 C.ar  122  HIS122      0.0818
     16  ND1      -33.0270   85.3750   18.4750 N.ar  122  HIS122     -0.2268
     17  CD2      -33.4060   83.9360   16.8650 C.ar  122  HIS122      0.1154
     18  CE1      -31.9050   84.7100   18.2650 C.ar  122  HIS122      0.1986
     19  NE2      -32.1020   83.8360   17.2920 N.ar  122  HIS122     -0.2212
     20  N        -37.0580   85.0230   14.3370 N.am  123  TRP123     -0.1976
     21  CA       -37.2250   84.1830   13.1480 C.3   123  TRP123      0.1640
     22  C        -38.5380   83.4030   13.0640 C.2   123  TRP123      0.2290
     23  O        -38.8030   82.7510   12.0480 O.2   123  TRP123     -0.2864
     24  CB       -36.0620   83.2120   12.9700 C.3   123  TRP123      0.0576
     25  CG       -34.6970   83.8340   12.8640 C.ar  123  TRP123      0.0006
     26  CD1      -34.3500   85.1590   12.9770 C.ar  123  TRP123      0.0946
     27  CD2      -33.4850   83.1030   12.6900 C.ar  123  TRP123      0.0152
     28  NE1      -32.9780   85.2900   12.8560 N.ar  123  TRP123     -0.2442
     29  CE2      -32.4290   84.0450   12.6680 C.ar  123  TRP123      0.0810
     30  CE3      -33.1970   81.7380   12.5230 C.ar  123  TRP123      0.0012
     31  CZ2      -31.0920   83.6520   12.5210 C.ar  123  TRP123      0.0191
     32  CZ3      -31.8740   81.3550   12.3470 C.ar  123  TRP123      0.0001
     33  CH2      -30.8310   82.3090   12.3570 C.ar  123  TRP123      0.0015
     34  N        -33.5660   90.0080   15.3180 N.3   166  ASN166     -0.1225
     35  CA       -32.3000   89.2930   15.3550 C.3   166  ASN166      0.1785
     36  C        -31.9270   88.8190   13.9490 C.2   166  ASN166      0.2597
     37  O        -32.6930   88.0850   13.3080 O.2   166  ASN166     -0.2718
     38  CB       -32.4350   88.0660   16.2570 C.3   166  ASN166      0.1169
     39  CG       -31.1710   87.2280   16.2240 C.2   166  ASN166      0.2627
     40  OD1      -30.1960   87.5880   16.8780 O.2   166  ASN166     -0.2716
     41  ND2      -31.1630   86.1350   15.4630 N.am  166  ASN166     -0.0877
     42  N        -30.7150   89.1790   13.5310 N.am  167  GLU167     -0.1979
     43  CA       -30.1230   88.7000   12.2830 C.3   167  GLU167      0.1602
     44  C        -31.0470   88.7190   11.0680 C.2   167  GLU167      0.2287
     45  O        -31.2700   87.6920   10.4270 O.2   167  GLU167     -0.2864
     46  CB       -29.5370   87.2930   12.4350 C.3   167  GLU167      0.0415
     47  CG       -28.4480   87.1520   13.5020 C.3   167  GLU167      0.1163
     48  CD       -27.6080   85.9030   13.3320 C.2   167  GLU167      0.3649
     49  OE1      -27.8220   85.1130   12.3840 O.co2 167  GLU167     -0.2457
     50  OE2      -26.6980   85.7230   14.1650 O.co2 167  GLU167     -0.2457
     51  N        -19.3250   85.7600   15.0760 N.3   311  TYR311     -0.1241
     52  CA       -18.8850   84.3710   15.1770 C.3   311  TYR311      0.1605
     53  C        -17.5660   84.0650   14.4820 C.2   311  TYR311      0.2264
     54  O        -16.8210   83.2100   14.9550 O.2   311  TYR311     -0.2867
     55  CB       -19.9350   83.4370   14.5680 C.3   311  TYR311      0.0534
     56  CG       -21.1420   83.2780   15.4420 C.ar  311  TYR311     -0.0201
     57  CD1      -22.2370   84.1080   15.2920 C.ar  311  TYR311     -0.0009
     58  CD2      -21.1520   82.3220   16.4540 C.ar  311  TYR311     -0.0009
     59  CE1      -23.3230   83.9740   16.1370 C.ar  311  TYR311      0.0417
     60  CE2      -22.2380   82.1640   17.2790 C.ar  311  TYR311      0.0417
     61  CZ       -23.3240   83.0150   17.1350 C.ar  311  TYR311      0.1957
     62  OH       -24.4030   82.8160   17.9690 O.3   311  TYR311     -0.2866
     63  N        -19.6110   76.7260    8.4310 N.3   348  TRP348     -0.1241
     64  CA       -19.4360   78.1530    8.1870 C.3   348  TRP348      0.1605
     65  C        -18.5770   78.8100    9.2730 C.2   348  TRP348      0.2264
     66  O        -18.1810   79.9680    9.1220 O.2   348  TRP348     -0.2867
     67  CB       -20.8230   78.8150    8.1470 C.3   348  TRP348      0.0550
     68  CG       -21.6360   78.6160    9.3970 C.ar  348  TRP348      0.0003
     69  CD1      -22.5160   77.6000    9.6570 C.ar  348  TRP348      0.0946
     70  CD2      -21.6530   79.4710   10.5480 C.ar  348  TRP348      0.0152
     71  NE1      -23.0660   77.7650   10.9040 N.ar  348  TRP348     -0.2442
     72  CE2      -22.5590   78.9040   11.4730 C.ar  348  TRP348      0.0810
     73  CE3      -20.9990   80.6610   10.8900 C.ar  348  TRP348      0.0012
     74  CZ2      -22.8260   79.4880   12.7140 C.ar  348  TRP348      0.0191
     75  CZ3      -21.2660   81.2370   12.1310 C.ar  348  TRP348      0.0001
     76  CH2      -22.1650   80.6470   13.0250 C.ar  348  TRP348      0.0015
     77  N        -24.6070   87.9740   20.6440 N.3   376  GLU376     -0.1245
     78  CA       -24.2370   86.5680   20.4840 C.3   376  GLU376      0.1567
     79  C        -22.7600   86.4530   20.1440 C.2   376  GLU376      0.2260
     80  O        -22.2310   87.2250   19.3400 O.2   376  GLU376     -0.2867
     81  CB       -24.9880   85.8750   19.3400 C.3   376  GLU376      0.0388
     82  CG       -26.4910   85.7910   19.5440 C.3   376  GLU376      0.1160
     83  CD       -27.2370   84.9670   18.5190 C.2   376  GLU376      0.3649
     84  OE1      -26.6160   84.1830   17.7600 O.co2 376  GLU376     -0.2457
     85  OE2      -28.4870   85.0760   18.5190 O.co2 376  GLU376     -0.2457
     86  N        -23.7110   82.9860   23.1540 N.3   418  TRP418     -0.1241
     87  CA       -24.6290   82.0560   22.4970 C.3   418  TRP418      0.1605
     88  C        -24.0400   80.6570   22.6850 C.2   418  TRP418      0.2264
     89  O        -22.9920   80.3860   22.0860 O.2   418  TRP418     -0.2867
     90  CB       -24.8030   82.3380   20.9920 C.3   418  TRP418      0.0550
     91  CG       -25.8170   81.3680   20.4700 C.ar  418  TRP418      0.0003
     92  CD1      -25.6030   80.1450   19.8980 C.ar  418  TRP418      0.0946
     93  CD2      -27.2400   81.5120   20.5830 C.ar  418  TRP418      0.0152
     94  NE1      -26.8060   79.5210   19.6570 N.ar  418  TRP418     -0.2442
     95  CE2      -27.8280   80.3360   20.0690 C.ar  418  TRP418      0.0810
     96  CE3      -28.0730   82.5360   21.0540 C.ar  418  TRP418      0.0012
     97  CZ2      -29.2150   80.1460   20.0360 C.ar  418  TRP418      0.0191
     98  CZ3      -29.4580   82.3560   21.0180 C.ar  418  TRP418      0.0001
     99  CH2      -30.0110   81.1690   20.4910 C.ar  418  TRP418      0.0015
    100  N        -30.7600   73.9100   16.7190 N.3   425  GLU425     -0.1231
    101  CA       -29.9190   74.7370   15.8550 C.3   425  GLU425      0.1699
    102  C        -30.4860   74.7570   14.4380 C.2   425  GLU425      0.2592
    103  O        -29.8160   74.4160   13.4620 O.2   425  GLU425     -0.2718
    104  CB       -28.4650   74.2640   15.9690 C.3   425  GLU425      0.0402
    105  CG       -27.4570   75.0010   15.0960 C.3   425  GLU425      0.1161
    106  CD       -27.4090   76.5090   15.2800 C.2   425  GLU425      0.3649
    107  OE1      -27.8330   77.0670   16.3180 O.co2 425  GLU425     -0.2457
    108  OE2      -26.9120   77.1710   14.3400 O.co2 425  GLU425     -0.2457
    109  N        -31.7420   75.1900   14.3260 N.am  426  TRP426     -0.1976
    110  CA       -32.3380   75.4550   13.0210 C.3   426  TRP426      0.1640
    111  C        -32.2070   74.2700   12.0540 C.2   426  TRP426      0.2290
    112  O        -32.5620   73.1420   12.4270 O.2   426  TRP426     -0.2864
    113  CB       -31.8210   76.7920   12.4660 C.3   426  TRP426      0.0576
    114  CG       -31.9930   77.9120   13.4740 C.ar  426  TRP426      0.0006
    115  CD1      -30.9830   78.5820   14.1040 C.ar  426  TRP426      0.0946
    116  CD2      -33.2210   78.4980   13.9460 C.ar  426  TRP426      0.0152
    117  NE1      -31.4970   79.5490   14.9430 N.ar  426  TRP426     -0.2442
    118  CE2      -32.8680   79.5010   14.8750 C.ar  426  TRP426      0.0810
    119  CE3      -34.5820   78.2570   13.7040 C.ar  426  TRP426      0.0012
    120  CZ2      -33.8250   80.2970   15.5200 C.ar  426  TRP426      0.0191
    121  CZ3      -35.5330   79.0400   14.3590 C.ar  426  TRP426      0.0001
    122  CH2      -35.1510   80.0450   15.2610 C.ar  426  TRP426      0.0015
    123  N        -24.2080   74.3600   20.6940 N.3   434  PHE434     -0.1241
    124  CA       -23.6420   75.6760   21.0080 C.3   434  PHE434      0.1605
    125  C        -23.7260   76.0120   22.4990 C.2   434  PHE434      0.2264
    126  O        -23.3060   77.0990   22.9110 O.2   434  PHE434     -0.2867
    127  CB       -24.3340   76.8090   20.2430 C.3   434  PHE434      0.0534
    128  CG       -23.8730   76.9680   18.8150 C.ar  434  PHE434     -0.0203
    129  CD1      -22.8350   77.8440   18.5130 C.ar  434  PHE434     -0.0042
    130  CD2      -24.4600   76.2570   17.7680 C.ar  434  PHE434     -0.0042
    131  CE1      -22.4060   78.0640   17.2050 C.ar  434  PHE434     -0.0003
    132  CE2      -24.0120   76.4540   16.4620 C.ar  434  PHE434     -0.0003
    133  CZ       -22.9980   77.3600   16.1750 C.ar  434  PHE434     -0.0000
@<TRIPOS>BOND
     1    67    64    1
     2    67    68    1
     3    64    63    1
     4    64    65    1
     5    66    65    2
     6    68    69   ar
     7    68    70   ar
     8    69    71   ar
     9    45    44    2
    10    70    73   ar
    11    70    72   ar
    12    73    75   ar
    13    71    72   ar
    14    44    43    1
    15    72    74   ar
    16    23    22    2
    17   111   112    2
    18   111   110    1
    19    75    76   ar
    20    43    46    1
    21    43    42    1
    22    32    33   ar
    23    32    30   ar
    24    33    31   ar
    25    49    48   ar
    26    46    47    1
    27   113   110    1
    28   113   114    1
    29    31    29   ar
    30    30    27   ar
    31    29    27   ar
    32    29    28   ar
    33    27    25   ar
    34    74    76   ar
    35    28    26   ar
    36    25    24    1
    37    25    26   ar
    38    24    21    1
    39   110   109    1
    40    22    21    1
    41    21    20    1
    42    37    36    2
    43    48    47    1
    44    48    50   ar
    45   103   102    2
    46   114   116   ar
    47   114   115   ar
    48    42    36   am
    49   119   116   ar
    50   119   121   ar
    51   116   118   ar
    52    36    35    1
    53   115   117   ar
    54   109   102   am
    55    20    12   am
    56   108   106   ar
    57   121   122   ar
    58   102   101    1
    59    53    54    2
    60    53    52    1
    61    55    52    1
    62    55    56    1
    63   118   117   ar
    64   118   120   ar
    65    51    52    1
    66   105   106    1
    67   105   104    1
    68   122   120   ar
    69   106   107   ar
    70    57    56   ar
    71    57    59   ar
    72    34    35    1
    73    35    38    1
    74    56    58   ar
    75    41    39   am
    76    12    13    2
    77    12    11    1
    78   101   104    1
    79   101   100    1
    80    59    61   ar
    81   133   132   ar
    82   133   131   ar
    83    39    38    1
    84    39    40    2
    85    11    10    1
    86    11    14    1
    87    58    60   ar
    88   132   130   ar
    89    17    19   ar
    90    17    15   ar
    91    61    60   ar
    92    61    62    1
    93   131   129   ar
    94    19    18   ar
    95    15    14    1
    96    15    16   ar
    97     9     7   am
    98    84    83   ar
    99   130   128   ar
   100     7     8    2
   101     7     6    1
   102    18    16   ar
   103     6     5    1
   104   129   128   ar
   105    83    85   ar
   106    83    82    1
   107   128   127    1
   108    80    79    2
   109    81    82    1
   110    81    78    1
   111     1     2    1
   112     5     2    1
   113    94    92   ar
   114    94    95   ar
   115     2     3    1
   116    92    91   ar
   117    97    95   ar
   118    97    99   ar
   119    95    93   ar
   120    79    78    1
   121   127   124    1
   122    91    93   ar
   123    91    90    1
   124    78    77    1
   125    99    98   ar
   126    93    96   ar
   127   123   124    1
   128    90    87    1
   129   124   125    1
   130    98    96   ar
   131     3     4    2
   132    89    88    2
   133    87    88    1
   134    87    86    1
   135   125   126    2
