@<TRIPOS>MOLECULE
tmp/3ai0A00.pdb
 206 201 0 0 0
SMALL
GASTEIGER

@<TRIPOS>ATOM
      1  N        -35.8480   77.7810   19.5900 N.3    19  GLN19      -0.1245
      2  CA       -34.7360   76.8770   19.8640 C.3    19  GLN19       0.1566
      3  C        -34.8440   76.1570   21.2070 C.2    19  GLN19       0.2260
      4  O        -34.2350   75.0910   21.3770 O.2    19  GLN19      -0.2867
      5  CB       -33.4140   77.6340   19.7660 C.3    19  GLN19       0.0367
      6  CG       -33.2490   78.2230   18.3740 C.3    19  GLN19       0.0905
      7  CD       -31.8420   78.7270   18.1250 C.2    19  GLN19       0.2608
      8  OE1      -31.5660   79.9240   18.2750 O.2    19  GLN19      -0.2717
      9  NE2      -30.9270   77.8120   17.8110 N.am   19  GLN19      -0.0878
     10  N        -36.9000   86.5200   16.7720 N.3   122  HIS122     -0.1226
     11  CA       -35.7870   85.6410   16.4170 C.3   122  HIS122      0.1752
     12  C        -36.2640   84.4910   15.5200 C.2   122  HIS122      0.2596
     13  O        -36.1150   83.3090   15.8410 O.2   122  HIS122     -0.2718
     14  CB       -35.0610   85.1480   17.6830 C.3   122  HIS122      0.0759
     15  CG       -33.6790   84.5920   17.4510 C.ar  122  HIS122      0.0818
     16  ND1      -32.6520   84.7990   18.3500 N.ar  122  HIS122     -0.2268
     17  CD2      -33.1790   83.7530   16.5090 C.ar  122  HIS122      0.1154
     18  CE1      -31.5990   84.0840   17.9920 C.ar  122  HIS122      0.1986
     19  NE2      -31.8680   83.4880   16.8430 N.ar  122  HIS122     -0.2212
     20  N        -36.8960   84.8680   14.4110 N.am  123  TRP123     -0.1976
     21  CA       -37.0790   84.0440   13.2100 C.3   123  TRP123      0.1640
     22  C        -38.3960   83.2710   13.1330 C.2   123  TRP123      0.2290
     23  O        -38.6350   82.6060   12.1240 O.2   123  TRP123     -0.2864
     24  CB       -35.9030   83.0920   12.9210 C.3   123  TRP123      0.0576
     25  CG       -34.5290   83.7430   12.8990 C.ar  123  TRP123      0.0006
     26  CD1      -34.2130   85.0780   13.0130 C.ar  123  TRP123      0.0946
     27  CD2      -33.2880   83.0560   12.6800 C.ar  123  TRP123      0.0152
     28  NE1      -32.8550   85.2540   12.8690 N.ar  123  TRP123     -0.2442
     29  CE2      -32.2630   84.0340   12.6450 C.ar  123  TRP123      0.0810
     30  CE3      -32.9490   81.7050   12.5000 C.ar  123  TRP123      0.0012
     31  CZ2      -30.9120   83.6960   12.4730 C.ar  123  TRP123      0.0191
     32  CZ3      -31.6160   81.3750   12.3080 C.ar  123  TRP123      0.0001
     33  CH2      -30.6180   82.3660   12.2860 C.ar  123  TRP123      0.0015
     34  N        -33.5830   89.9560   15.5600 N.3   166  ASN166     -0.1225
     35  CA       -32.3150   89.2490   15.5810 C.3   166  ASN166      0.1785
     36  C        -31.9080   88.8510   14.1620 C.2   166  ASN166      0.2597
     37  O        -32.5570   88.0030   13.5470 O.2   166  ASN166     -0.2718
     38  CB       -32.3650   87.9830   16.4340 C.3   166  ASN166      0.1169
     39  CG       -30.9670   87.4300   16.6300 C.2   166  ASN166      0.2627
     40  OD1      -30.1610   88.0440   17.3330 O.2   166  ASN166     -0.2716
     41  ND2      -30.6930   86.2680   16.0540 N.am  166  ASN166     -0.0877
     42  N        -30.8160   89.4360   13.6790 N.am  167  ASP167     -0.1974
     43  CA       -30.1540   89.0140   12.4440 C.3   167  ASP167      0.1709
     44  C        -31.0550   88.8350   11.2150 C.2   167  ASP167      0.2293
     45  O        -31.2550   87.7210   10.7110 O.2   167  ASP167     -0.2864
     46  CB       -29.3850   87.7220   12.7200 C.3   167  ASP167      0.1436
     47  CG       -28.5010   87.2850   11.5550 C.2   167  ASP167      0.3671
     48  OD1      -28.3290   88.0560   10.5750 O.co2 167  ASP167     -0.2456
     49  OD2      -27.9910   86.1300   11.6270 O.co2 167  ASP167     -0.2456
     50  N        -30.1340   89.7180    8.3220 N.3   169  LEU169     -0.1231
     51  CA       -29.2790   89.3210    7.1910 C.3   169  LEU169      0.1693
     52  C        -29.4850   87.8200    6.9650 C.2   169  LEU169      0.2592
     53  O        -29.5430   87.3550    5.8250 O.2   169  LEU169     -0.2718
     54  CB       -27.8000   89.6040    7.4810 C.3   169  LEU169      0.0284
     55  CG       -26.8410   89.2380    6.3500 C.3   169  LEU169      0.0019
     56  CD1      -27.0630   90.1060    5.1330 C.3   169  LEU169      0.0001
     57  CD2      -25.4060   89.2610    6.8630 C.3   169  LEU169      0.0001
     58  N        -29.5390   87.0430    8.0390 N.am  170  THR170     -0.1953
     59  CA       -29.7920   85.6160    7.8730 C.3   170  THR170      0.1897
     60  C        -31.2550   85.3050    7.5770 C.2   170  THR170      0.2313
     61  O        -31.5370   84.5400    6.6580 O.2   170  THR170     -0.2863
     62  CB       -29.3250   84.8250    9.1080 C.3   170  THR170      0.1794
     63  OG1      -27.9120   85.0270    9.2600 O.3   170  THR170     -0.2208
     64  CG2      -29.5900   83.3270    8.9670 C.3   170  THR170      0.0378
     65  N        -33.6130   78.0760    5.2560 N.3   181  MET181     -0.1245
     66  CA       -34.2810   78.6530    6.4250 C.3   181  MET181      0.1570
     67  C        -35.7400   78.9440    6.0850 C.2   181  MET181      0.2261
     68  O        -36.0570   79.3610    4.9600 O.2   181  MET181     -0.2867
     69  CB       -33.6060   79.9930    6.7540 C.3   181  MET181      0.0387
     70  CG       -32.1660   79.9360    7.2820 C.3   181  MET181      0.0595
     71  SD       -32.1710   79.3200    8.9720 S.3   181  MET181     -0.1393
     72  CE       -30.4140   79.3050    9.3380 C.3   181  MET181      0.0692
     73  N        -25.8920   90.4790   12.5560 N.3   227  ASN227     -0.1240
     74  CA       -24.8060   89.5050   12.4590 C.3   227  ASN227      0.1653
     75  C        -23.8150   89.9490   11.3890 C.2   227  ASN227      0.2266
     76  O        -24.2080   90.2740   10.2700 O.2   227  ASN227     -0.2867
     77  CB       -25.3870   88.1150   12.1420 C.3   227  ASN227      0.1155
     78  CG       -24.3450   87.0100   12.2060 C.2   227  ASN227      0.2627
     79  OD1      -23.3980   87.0030   11.4140 O.2   227  ASN227     -0.2716
     80  ND2      -24.5470   86.0420   13.1110 N.am  227  ASN227     -0.0877
     81  N        -19.5320   88.9360   10.0680 N.3   229  ASN229     -0.1240
     82  CA       -18.2190   88.3420   10.2300 C.3   229  ASN229      0.1653
     83  C        -17.1340   89.3160    9.8100 C.2   229  ASN229      0.2266
     84  O        -17.3780   90.2260    9.0170 O.2   229  ASN229     -0.2867
     85  CB       -18.1350   87.1070    9.3520 C.3   229  ASN229      0.1155
     86  CG       -19.0210   86.0090    9.8860 C.2   229  ASN229      0.2627
     87  OD1      -19.0530   85.7290   11.0930 O.2   229  ASN229     -0.2716
     88  ND2      -19.7970   85.4370    8.9930 N.am  229  ASN229     -0.0877
     89  N        -24.0240   90.2000   16.6020 N.3   309  ASN309     -0.1240
     90  CA       -23.8220   88.7560   16.6560 C.3   309  ASN309      0.1653
     91  C        -22.5730   88.4840   15.8270 C.2   309  ASN309      0.2266
     92  O        -22.5450   88.7700   14.6270 O.2   309  ASN309     -0.2867
     93  CB       -25.0240   88.0150   16.0510 C.3   309  ASN309      0.1155
     94  CG       -26.3130   88.2500   16.8240 C.2   309  ASN309      0.2627
     95  OD1      -26.2890   88.8380   17.9060 O.2   309  ASN309     -0.2716
     96  ND2      -27.4330   87.7820   16.2800 N.am  309  ASN309     -0.0877
     97  N        -19.4240   85.5880   15.0150 N.3   311  TYR311     -0.1227
     98  CA       -18.9760   84.2020   15.1920 C.3   311  TYR311      0.1736
     99  C        -17.6360   83.8800   14.5390 C.2   311  TYR311      0.2596
    100  O        -16.8910   83.0420   15.0550 O.2   311  TYR311     -0.2718
    101  CB       -20.0110   83.2170   14.6350 C.3   311  TYR311      0.0548
    102  CG       -21.2870   83.1080   15.4320 C.ar  311  TYR311     -0.0200
    103  CD1      -22.3070   84.0440   15.3070 C.ar  311  TYR311     -0.0009
    104  CD2      -21.4710   82.0680   16.3440 C.ar  311  TYR311     -0.0009
    105  CE1      -23.4740   83.9460   16.0670 C.ar  311  TYR311      0.0417
    106  CE2      -22.6420   81.9390   17.0520 C.ar  311  TYR311      0.0417
    107  CZ       -23.6570   82.8700   16.9160 C.ar  311  TYR311      0.1957
    108  OH       -24.8180   82.7030   17.6400 O.3   311  TYR311     -0.2866
    109  N        -17.3720   84.4260   13.3550 N.am  312  THR312     -0.1953
    110  CA       -16.2480   83.9340   12.5540 C.3   312  THR312      0.1897
    111  C        -15.6800   84.9680   11.5920 C.2   312  THR312      0.2313
    112  O        -15.9990   86.1550   11.7030 O.2   312  THR312     -0.2863
    113  CB       -16.6710   82.6080   11.8520 C.3   312  THR312      0.1794
    114  OG1      -15.5230   81.8910   11.3730 O.3   312  THR312     -0.2208
    115  CG2      -17.6930   82.8180   10.7290 C.3   312  THR312      0.0378
    116  N        -19.3660   76.3810    8.5300 N.3   348  TRP348     -0.1241
    117  CA       -19.1640   77.8040    8.2840 C.3   348  TRP348      0.1605
    118  C        -18.3750   78.5050    9.3870 C.2   348  TRP348      0.2264
    119  O        -17.9670   79.6640    9.2280 O.2   348  TRP348     -0.2867
    120  CB       -20.5390   78.4720    8.1470 C.3   348  TRP348      0.0550
    121  CG       -21.4620   78.2140    9.3170 C.ar  348  TRP348      0.0003
    122  CD1      -22.3880   77.2020    9.4480 C.ar  348  TRP348      0.0946
    123  CD2      -21.5210   78.9580   10.5410 C.ar  348  TRP348      0.0152
    124  NE1      -23.0360   77.3010   10.6610 N.ar  348  TRP348     -0.2442
    125  CE2      -22.5060   78.3570   11.3560 C.ar  348  TRP348      0.0810
    126  CE3      -20.8500   80.0910   11.0200 C.ar  348  TRP348      0.0012
    127  CZ2      -22.7910   78.8090   12.6430 C.ar  348  TRP348      0.0191
    128  CZ3      -21.1350   80.5370   12.3040 C.ar  348  TRP348      0.0001
    129  CH2      -22.0920   79.8950   13.1040 C.ar  348  TRP348      0.0015
    130  N        -24.7220   87.8460   20.5700 N.3   376  GLU376     -0.1245
    131  CA       -24.3630   86.4390   20.3550 C.3   376  GLU376      0.1567
    132  C        -22.8810   86.3100   20.0240 C.2   376  GLU376      0.2260
    133  O        -22.3370   87.0830   19.2310 O.2   376  GLU376     -0.2867
    134  CB       -25.1080   85.7940   19.1750 C.3   376  GLU376      0.0388
    135  CG       -26.6190   85.7450   19.3430 C.3   376  GLU376      0.1160
    136  CD       -27.3830   85.1490   18.1710 C.2   376  GLU376      0.3649
    137  OE1      -26.8070   84.3960   17.3500 O.co2 376  GLU376     -0.2457
    138  OE2      -28.6190   85.3620   18.1840 O.co2 376  GLU376     -0.2457
    139  N        -23.5830   83.0240   23.5450 N.3   418  TRP418     -0.1241
    140  CA       -24.5360   82.1700   22.8470 C.3   418  TRP418      0.1605
    141  C        -24.0370   80.7270   22.9270 C.2   418  TRP418      0.2264
    142  O        -22.9380   80.4490   22.4510 O.2   418  TRP418     -0.2867
    143  CB       -24.5850   82.5590   21.3650 C.3   418  TRP418      0.0550
    144  CG       -25.6700   81.7890   20.6830 C.ar  418  TRP418      0.0003
    145  CD1      -25.5350   80.6350   19.9610 C.ar  418  TRP418      0.0946
    146  CD2      -27.0790   82.0530   20.7690 C.ar  418  TRP418      0.0152
    147  NE1      -26.7770   80.1610   19.5940 N.ar  418  TRP418     -0.2442
    148  CE2      -27.7370   81.0200   20.0660 C.ar  418  TRP418      0.0810
    149  CE3      -27.8500   83.0330   21.4130 C.ar  418  TRP418      0.0012
    150  CZ2      -29.1270   80.9640   19.9570 C.ar  418  TRP418      0.0191
    151  CZ3      -29.2350   82.9840   21.2850 C.ar  418  TRP418      0.0001
    152  CH2      -29.8540   81.9660   20.5430 C.ar  418  TRP418      0.0015
    153  N        -31.0290   73.5290   16.6280 N.3   425  GLU425     -0.1231
    154  CA       -30.1650   74.3850   15.8100 C.3   425  GLU425      0.1699
    155  C        -30.6640   74.5310   14.3780 C.2   425  GLU425      0.2592
    156  O        -29.9270   74.3460   13.4100 O.2   425  GLU425     -0.2718
    157  CB       -28.7250   73.8630   15.8500 C.3   425  GLU425      0.0402
    158  CG       -28.0450   74.1790   17.1620 C.3   425  GLU425      0.1161
    159  CD       -27.8020   75.6560   17.4370 C.2   425  GLU425      0.3649
    160  OE1      -27.9580   76.5610   16.5630 O.co2 425  GLU425     -0.2457
    161  OE2      -27.5070   75.8940   18.6380 O.co2 425  GLU425     -0.2457
    162  N        -31.9200   74.9410   14.2610 N.am  426  TRP426     -0.1976
    163  CA       -32.4760   75.2480   12.9480 C.3   426  TRP426      0.1640
    164  C        -32.3090   74.0530   11.9990 C.2   426  TRP426      0.2290
    165  O        -32.6980   72.9300   12.3600 O.2   426  TRP426     -0.2864
    166  CB       -31.8840   76.5710   12.4500 C.3   426  TRP426      0.0576
    167  CG       -32.0130   77.6890   13.4530 C.ar  426  TRP426      0.0006
    168  CD1      -30.9780   78.3650   14.0510 C.ar  426  TRP426      0.0946
    169  CD2      -33.2280   78.2580   13.9820 C.ar  426  TRP426      0.0152
    170  NE1      -31.4740   79.3310   14.9020 N.ar  426  TRP426     -0.2442
    171  CE2      -32.8480   79.2930   14.8700 C.ar  426  TRP426      0.0810
    172  CE3      -34.5930   78.0370   13.7470 C.ar  426  TRP426      0.0012
    173  CZ2      -33.7900   80.0900   15.5490 C.ar  426  TRP426      0.0191
    174  CZ3      -35.5370   78.8270   14.4250 C.ar  426  TRP426      0.0001
    175  CH2      -35.1250   79.8580   15.3000 C.ar  426  TRP426      0.0015
    176  N        -29.9300   72.3280   11.3130 N.3   428  ARG428     -0.1245
    177  CA       -28.9790   71.3370   11.8080 C.3   428  ARG428      0.1563
    178  C        -29.6150   70.4820   12.9090 C.2   428  ARG428      0.2260
    179  O        -28.9700   69.5860   13.4490 O.2   428  ARG428     -0.2867
    180  CB       -27.6970   72.0120   12.3130 C.3   428  ARG428      0.0307
    181  CG       -27.1380   73.0700   11.3640 C.3   428  ARG428      0.0489
    182  CD       -26.9440   72.5600    9.9490 C.3   428  ARG428      0.2205
    183  NE       -26.0810   71.3880    9.9210 N.pl3 428  ARG428     -0.0865
    184  CZ       -25.9850   70.5680    8.8740 C.cat 428  ARG428      0.5346
    185  NH1      -25.2460   69.4710    8.9470 N.pl3 428  ARG428      0.1354
    186  NH2      -26.6950   70.7940    7.7740 N.pl3 428  ARG428      0.1354
    187  N        -25.7160   69.7700   16.2400 N.3   432  GLU432     -0.1245
    188  CA       -24.6600   70.7100   16.6300 C.3   432  GLU432      0.1567
    189  C        -24.9750   71.2730   18.0110 C.2   432  GLU432      0.2260
    190  O        -26.1180   71.6460   18.2730 O.2   432  GLU432     -0.2867
    191  CB       -24.4990   71.8160   15.5760 C.3   432  GLU432      0.0388
    192  CG       -24.0970   71.2510   14.2270 C.3   432  GLU432      0.1160
    193  CD       -24.0160   72.2920   13.1250 C.2   432  GLU432      0.3649
    194  OE1      -23.9610   71.8900   11.9390 O.co2 432  GLU432     -0.2457
    195  OE2      -24.0430   73.5010   13.4330 O.co2 432  GLU432     -0.2457
    196  N        -24.1980   74.1770   20.7650 N.3   434  PHE434     -0.1241
    197  CA       -23.7060   75.5310   21.0280 C.3   434  PHE434      0.1605
    198  C        -23.8310   75.9380   22.4920 C.2   434  PHE434      0.2264
    199  O        -23.4880   77.0680   22.8470 O.2   434  PHE434     -0.2867
    200  CB       -24.4110   76.5940   20.1700 C.3   434  PHE434      0.0534
    201  CG       -23.8740   76.7040   18.7690 C.ar  434  PHE434     -0.0203
    202  CD1      -22.9280   77.6710   18.4480 C.ar  434  PHE434     -0.0042
    203  CD2      -24.3460   75.8650   17.7720 C.ar  434  PHE434     -0.0042
    204  CE1      -22.4350   77.7910   17.1450 C.ar  434  PHE434     -0.0003
    205  CE2      -23.8600   75.9780   16.4780 C.ar  434  PHE434     -0.0003
    206  CZ       -22.9280   76.9650   16.1520 C.ar  434  PHE434     -0.0000
@<TRIPOS>BOND
     1    68    67    2
     2    56    55    1
     3    65    66    1
     4    53    52    2
     5    67    66    1
     6    55    57    1
     7    55    54    1
     8    66    69    1
     9    61    60    2
    10    69    70    1
    11    52    51    1
    12    52    58   am
    13    51    54    1
    14    51    50    1
    15    70    71    1
    16    60    59    1
    17   186   184    1
    18    59    58    1
    19    59    62    1
    20   120   117    1
    21   120   121    1
    22   117   116    1
    23   117   118    1
    24   184   185    1
    25   184   183    2
    26    64    62    1
    27    71    72    1
    28    88    86   am
    29    84    83    2
    30    62    63    1
    31   119   118    2
    32   121   122   ar
    33   121   123   ar
    34    85    86    1
    35    85    82    1
    36   122   124   ar
    37    83    82    1
    38    86    87    2
    39   183   182    1
    40   182   181    1
    41    81    82    1
    42    76    75    2
    43   123   126   ar
    44   123   125   ar
    45    48    47   ar
    46   124   125   ar
    47    45    44    2
    48   115   113    1
    49   126   128   ar
    50    44    43    1
    51   176   177    1
    52   125   127   ar
    53   181   180    1
    54   114   113    1
    55    75    74    1
    56    79    78    2
    57    47    49   ar
    58    47    46    1
    59   111   112    2
    60   111   110    1
    61   177   180    1
    62   177   178    1
    63   113   110    1
    64   194   193   ar
    65   164   165    2
    66   164   163    1
    67    23    22    2
    68    77    78    1
    69    77    74    1
    70    78    80   am
    71    33    32   ar
    72    33    31   ar
    73   128   129   ar
    74    32    30   ar
    75    43    46    1
    76    43    42    1
    77   166   163    1
    78   166   167    1
    79    74    73    1
    80    31    29   ar
    81    30    27   ar
    82   110   109    1
    83   127   129   ar
    84    29    27   ar
    85    29    28   ar
    86    27    25   ar
    87    28    26   ar
    88    25    24    1
    89    25    26   ar
    90   178   179    2
    91    24    21    1
    92   163   162    1
    93   193   195   ar
    94   193   192    1
    95    22    21    1
    96    21    20    1
    97   109    99   am
    98   156   155    2
    99   167   169   ar
   100   167   168   ar
   101    37    36    2
   102    42    36   am
   103   172   169   ar
   104   172   174   ar
   105   169   171   ar
   106   168   170   ar
   107    36    35    1
   108   192   191    1
   109   162   155   am
   110   155   154    1
   111    20    12   am
   112   174   175   ar
   113    99   100    2
   114    99    98    1
   115    92    91    2
   116   101    98    1
   117   101   102    1
   118   171   170   ar
   119   171   173   ar
   120    97    98    1
   121   175   173   ar
   122   103   102   ar
   123   103   105   ar
   124   102   104   ar
   125    12    13    2
   126    12    11    1
   127    34    35    1
   128   191   188    1
   129    35    38    1
   130   154   157    1
   131   154   153    1
   132    91    90    1
   133   157   158    1
   134    93    90    1
   135    93    94    1
   136    41    39   am
   137   105   107   ar
   138   206   205   ar
   139   206   204   ar
   140   187   188    1
   141    96    94   am
   142   104   106   ar
   143    11    10    1
   144    11    14    1
   145    38    39    1
   146   205   203   ar
   147    17    19   ar
   148    17    15   ar
   149   160   159   ar
   150    89    90    1
   151    39    40    2
   152   188   189    1
   153    94    95    2
   154    19    18   ar
   155   107   106   ar
   156   107   108    1
   157   204   202   ar
   158   158   159    1
   159   137   136   ar
   160   159   161   ar
   161    15    14    1
   162    15    16   ar
   163   203   201   ar
   164     9     7   am
   165    18    16   ar
   166   189   190    2
   167     7     8    2
   168     7     6    1
   169   136   138   ar
   170   136   135    1
   171     6     5    1
   172   202   201   ar
   173   201   200    1
   174   134   135    1
   175   134   131    1
   176   133   132    2
   177     1     2    1
   178   147   145   ar
   179   147   148   ar
   180     5     2    1
   181     2     3    1
   182   150   148   ar
   183   150   152   ar
   184   145   144   ar
   185   132   131    1
   186   148   146   ar
   187   200   197    1
   188   131   130    1
   189   152   151   ar
   190   144   146   ar
   191   144   143    1
   192   196   197    1
   193   146   149   ar
   194   197   198    1
   195     3     4    2
   196   151   149   ar
   197   143   140    1
   198   142   141    2
   199   198   199    2
   200   140   141    1
   201   140   139    1
