@<TRIPOS>MOLECULE
tmp/3ai3D03.pdb
 101 93 0 0 0
SMALL
GASTEIGER

@<TRIPOS>ATOM
      1  N         26.5430  120.5720  155.4720 N.3     4  GLY4       -0.1210
      2  CA        25.2840  119.8520  155.7090 C.3     4  GLY4        0.1956
      3  C         25.3320  118.3970  155.2570 C.2     4  GLY4        0.2611
      4  O         24.3230  117.8000  154.8500 O.2     4  GLY4       -0.2717
      5  N         26.5120  117.8170  155.2740 N.am    5  ILE5       -0.1979
      6  CA        26.5900  116.4330  154.8240 C.3     5  ILE5        0.1595
      7  C         26.9820  115.4270  155.9190 C.2     5  ILE5        0.2287
      8  O         27.1430  114.2250  155.6490 O.2     5  ILE5       -0.2864
      9  CB        27.4340  116.3070  153.5420 C.3     5  ILE5        0.0276
     10  CG1       28.8810  116.5160  153.8540 C.3     5  ILE5        0.0022
     11  CG2       26.9690  117.2980  152.4700 C.3     5  ILE5        0.0022
     12  CD1       29.5920  115.2120  153.8460 C.3     5  ILE5        0.0001
     13  N         25.6080  111.7090  155.9760 N.3     8  LYS8       -0.1245
     14  CA        25.2210  111.2820  154.6350 C.3     8  LYS8        0.1561
     15  C         26.1080  110.1160  154.1340 C.2     8  LYS8        0.2260
     16  O         27.2510  109.9800  154.5590 O.2     8  LYS8       -0.2867
     17  CB        25.2990  112.4680  153.6840 C.3     8  LYS8        0.0271
     18  CG        24.3420  113.6230  154.0490 C.3     8  LYS8        0.0035
     19  CD        22.9150  113.3100  153.6720 C.3     8  LYS8        0.0206
     20  CE        21.9430  114.2760  154.3480 C.3     8  LYS8        0.1093
     21  NZ        20.5760  114.1290  153.7510 N.3     8  LYS8       -0.1314
     22  N         23.2660  108.6310  149.5470 N.3    87  ASP87      -0.1225
     23  CA        22.8780  110.0330  149.3770 C.3    87  ASP87       0.1805
     24  C         23.7060  110.7010  148.2980 C.2    87  ASP87       0.2597
     25  O         23.2660  111.6720  147.6790 O.2    87  ASP87      -0.2718
     26  CB        23.1210  110.7870  150.6900 C.3    87  ASP87       0.1424
     27  CG        22.2830  110.2240  151.8170 C.2    87  ASP87       0.3668
     28  OD1       21.0290  110.2760  151.6640 O.co2  87  ASP87      -0.2456
     29  OD2       22.8750  109.7040  152.8060 O.co2  87  ASP87      -0.2456
     30  N         24.9260  110.2130  148.1350 N.am   88  ILE88      -0.1980
     31  CA        25.8790  110.8390  147.2280 C.3    88  ILE88       0.1595
     32  C         26.5730  109.7510  146.4320 C.2    88  ILE88       0.2287
     33  O         26.9900  108.7250  146.9870 O.2    88  ILE88      -0.2864
     34  CB        26.9340  111.6740  148.0440 C.3    88  ILE88       0.0276
     35  CG1       26.3030  112.9200  148.6720 C.3    88  ILE88       0.0022
     36  CG2       28.1780  112.0240  147.1820 C.3    88  ILE88       0.0022
     37  CD1       27.1360  113.5180  149.8190 C.3    88  ILE88       0.0001
     38  N         14.9550  110.6680  149.7540 N.3   135  GLY135     -0.1210
     39  CA        14.4750  112.0470  149.5900 C.3   135  GLY135      0.1956
     40  C         15.2820  112.9040  148.6150 C.2   135  GLY135      0.2612
     41  O         15.0100  114.0970  148.4610 O.2   135  GLY135     -0.2717
     42  N         16.2600  112.3010  147.9520 N.am  136  GLY136     -0.1942
     43  CA        17.1040  113.0640  147.0140 C.3   136  GLY136      0.2014
     44  C         18.5600  112.6910  147.1380 C.2   136  GLY136      0.2639
     45  O         18.8910  111.7120  147.8040 O.2   136  GLY136     -0.2714
     46  N         19.4260  113.4590  146.4720 N.am  137  GLY137     -0.1939
     47  CA        20.8580  113.1910  146.5500 C.3   137  GLY137      0.2014
     48  C         21.6180  113.9660  145.5070 C.2   137  GLY137      0.2638
     49  O         21.0660  114.8510  144.8440 O.2   137  GLY137     -0.2714
     50  N         22.8860  113.6050  145.3730 N.am  138  ALA138     -0.1977
     51  CA        23.7940  114.2560  144.4460 C.3   138  ALA138      0.1597
     52  C         24.5860  113.1680  143.7540 C.2   138  ALA138      0.2287
     53  O         25.0340  112.1890  144.3950 O.2   138  ALA138     -0.2864
     54  CB        24.7350  115.2250  145.2000 C.3   138  ALA138      0.0319
     55  N         14.5440  115.0700  143.2950 N.3   179  ASN179     -0.1240
     56  CA        15.4720  115.8740  144.0750 C.3   179  ASN179      0.1653
     57  C         16.8910  115.2720  144.0470 C.2   179  ASN179      0.2266
     58  O         17.6190  115.3900  145.0070 O.2   179  ASN179     -0.2867
     59  CB        14.9790  116.0470  145.5360 C.3   179  ASN179      0.1155
     60  CG        15.8500  116.9810  146.3540 C.2   179  ASN179      0.2627
     61  OD1       16.2880  118.0310  145.8750 O.2   179  ASN179     -0.2716
     62  ND2       16.1130  116.5990  147.6070 N.am  179  ASN179     -0.0877
     63  N         20.4230  115.6820  142.1910 N.3   181  ARG181     -0.1245
     64  CA        21.1030  116.7140  141.4120 C.3   181  ARG181      0.1563
     65  C         22.3520  116.1020  140.8060 C.2   181  ARG181      0.2260
     66  O         23.2390  115.6560  141.5390 O.2   181  ARG181     -0.2867
     67  CB        21.4630  117.9200  142.3100 C.3   181  ARG181      0.0307
     68  CG        20.2620  118.6240  142.8990 C.3   181  ARG181      0.0489
     69  CD        20.6540  119.6360  143.9740 C.3   181  ARG181      0.2205
     70  NE        21.4610  119.0790  145.0670 N.pl3 181  ARG181     -0.0865
     71  CZ        21.0190  118.2560  146.0220 C.cat 181  ARG181      0.5346
     72  NH1       19.7490  117.8440  146.0690 N.pl3 181  ARG181      0.1354
     73  NH2       21.8610  117.8400  146.9550 N.pl3 181  ARG181      0.1354
     74  N         28.3890  118.5170  146.1180 N.3   241  CYS241     -0.1221
     75  CA        27.5080  117.5260  146.7270 C.3   241  CYS241      0.1808
     76  C         26.8770  117.9960  148.0350 C.2   241  CYS241      0.2602
     77  O         26.2330  117.2050  148.7200 O.2   241  CYS241     -0.2717
     78  CB        28.2690  116.2310  146.9660 C.3   241  CYS241      0.0970
     79  SG        28.7350  115.4040  145.4290 S.3   241  CYS241     -0.0800
     80  N         27.0610  119.2620  148.3840 N.am  242  SER242     -0.1938
     81  CA        26.6490  119.7720  149.6940 C.3   242  SER242      0.2055
     82  C         25.2910  120.4410  149.6530 C.2   242  SER242      0.2642
     83  O         24.7070  120.6490  148.5630 O.2   242  SER242     -0.2714
     84  CB        27.6680  120.7880  150.2130 C.3   242  SER242      0.2130
     85  OG        27.4600  122.0370  149.5490 O.3   242  SER242     -0.2179
     86  N         24.7950  120.8030  150.8380 N.am  243  GLU243     -0.1976
     87  CA        23.5650  121.6040  150.9300 C.3   243  GLU243      0.1602
     88  C         23.7110  123.0230  150.3910 C.2   243  GLU243      0.2287
     89  O         22.7080  123.7640  150.2950 O.2   243  GLU243     -0.2864
     90  CB        23.0640  121.6820  152.3900 C.3   243  GLU243      0.0415
     91  CG        22.0170  120.6660  152.7100 C.3   243  GLU243      0.1163
     92  CD        20.7260  120.9090  151.9430 C.2   243  GLU243      0.3649
     93  OE1       20.2750  122.0820  151.8430 O.co2 243  GLU243     -0.2457
     94  OE2       20.1490  119.9230  151.4540 O.co2 243  GLU243     -0.2457
     95  N         22.6020  123.6650  145.8750 N.3   246  THR246     -0.1218
     96  CA        21.3130  123.0490  145.5740 C.3   246  THR246      0.1862
     97  C         20.6610  123.5280  144.2640 C.2   246  THR246      0.2287
     98  O         19.6130  123.0140  143.8830 O.2   246  THR246     -0.2866
     99  CB        20.3340  123.2420  146.7550 C.3   246  THR246      0.1770
    100  OG1       20.3950  124.6120  147.1770 O.3   246  THR246     -0.2211
    101  CG2       20.7430  122.3280  147.9190 C.3   246  THR246      0.0375
@<TRIPOS>BOND
     1    65    64    1
     2    65    66    2
     3    64    63    1
     4    64    67    1
     5    67    68    1
     6    68    69    1
     7    55    56    1
     8    52    53    2
     9    52    51    1
    10    98    97    2
    11    69    70    1
    12    57    56    1
    13    57    58    2
    14    56    59    1
    15    97    96    1
    16    51    54    1
    17    51    50    1
    18    49    48    2
    19    70    71    2
    20    50    48   am
    21    79    78    1
    22    48    47    1
    23    59    60    1
    24    96    95    1
    25    96    99    1
    26    61    60    2
    27    71    72    1
    28    71    73    1
    29    74    75    1
    30    60    62   am
    31    32    33    2
    32    32    31    1
    33    46    47    1
    34    46    44   am
    35    75    78    1
    36    75    76    1
    37    99   100    1
    38    99   101    1
    39    43    44    1
    40    43    42    1
    41    44    45    2
    42    36    34    1
    43    31    34    1
    44    31    30    1
    45    25    24    2
    46    42    40   am
    47    76    80   am
    48    76    77    2
    49    34    35    1
    50    30    24   am
    51    24    23    1
    52    80    81    1
    53    41    40    2
    54    83    82    2
    55    40    39    1
    56    35    37    1
    57    23    22    1
    58    23    26    1
    59    85    84    1
    60    39    38    1
    61    82    81    1
    62    82    86   am
    63    81    84    1
    64    89    88    2
    65    88    87    1
    66    26    27    1
    67    86    87    1
    68    87    90    1
    69    94    92   ar
    70    28    27   ar
    71    27    29   ar
    72    93    92   ar
    73    92    91    1
    74    90    91    1
    75    11     9    1
    76     9    10    1
    77     9     6    1
    78    19    18    1
    79    19    20    1
    80    17    18    1
    81    17    14    1
    82    21    20    1
    83    12    10    1
    84    15    16    2
    85    15    14    1
    86    14    13    1
    87     6     5    1
    88     6     7    1
    89     4     3    2
    90     3     5   am
    91     3     2    1
    92     1     2    1
    93     8     7    2
