@<TRIPOS>MOLECULE
tmp/3ai3B01.pdb
 128 124 0 0 0
SMALL
GASTEIGER

@<TRIPOS>ATOM
      1  N         21.5250  144.9630  135.0300 N.3    95  THR95      -0.1203
      2  CA        20.0700  144.8500  134.9590 C.3    95  THR95       0.1994
      3  C         19.7390  144.2260  133.6140 C.2    95  THR95       0.2618
      4  O         20.5820  144.2420  132.7180 O.2    95  THR95      -0.2717
      5  CB        19.3930  146.2380  135.1050 C.3    95  THR95       0.1784
      6  OG1       17.9840  146.0540  135.2670 O.3    95  THR95      -0.2211
      7  CG2       19.6690  147.1300  133.8910 C.3    95  THR95       0.0376
      8  N         18.5420  143.6650  133.4850 N.am   96  GLY96      -0.1956
      9  CA        18.1120  143.0450  132.2230 C.3    96  GLY96       0.1869
     10  C         17.8190  144.0850  131.1640 C.2    96  GLY96       0.2309
     11  O         17.7840  145.2950  131.4640 O.2    96  GLY96      -0.2863
     12  N         25.5890  135.7040  133.1770 N.3   144  SER144     -0.1202
     13  CA        24.2140  135.1880  133.1070 C.3   144  SER144      0.2020
     14  C         24.1910  133.9660  132.2300 C.2   144  SER144      0.2619
     15  O         25.0210  133.8380  131.3390 O.2   144  SER144     -0.2717
     16  CB        23.2920  136.2260  132.4480 C.3   144  SER144      0.2103
     17  OG        22.0210  135.6510  132.1380 O.3   144  SER144     -0.2182
     18  N         23.1850  133.1010  132.4170 N.am  145  ILE145     -0.1965
     19  CA        22.9580  132.0360  131.4300 C.3   145  ILE145      0.1727
     20  C         22.8070  132.6310  130.0040 C.2   145  ILE145      0.2616
     21  O         23.1790  131.9710  129.0200 O.2   145  ILE145     -0.2715
     22  CB        21.7630  131.1820  131.7960 C.3   145  ILE145      0.0290
     23  CG1       21.6990  129.9370  130.8440 C.3   145  ILE145      0.0022
     24  CG2       20.4660  132.0560  131.8410 C.3   145  ILE145      0.0023
     25  CD1       20.9280  128.8000  131.4190 C.3   145  ILE145      0.0001
     26  N         22.2960  133.8720  129.9110 N.am  146  CYS146     -0.1968
     27  CA        22.0830  134.5760  128.6160 C.3   146  CYS146      0.1712
     28  C         23.3810  134.8680  127.8370 C.2   146  CYS146      0.2296
     29  O         23.3420  135.1390  126.6180 O.2   146  CYS146     -0.2864
     30  CB        21.3340  135.8850  128.8460 C.3   146  CYS146      0.0983
     31  SG        19.6370  135.5730  129.4020 S.3   146  CYS146     -0.0798
     32  N         18.0920  134.9450  125.6610 N.3   151  LEU151     -0.1245
     33  CA        16.6150  135.0110  125.8340 C.3   151  LEU151      0.1561
     34  C         16.0730  135.9830  124.7930 C.2   151  LEU151      0.2260
     35  O         16.6220  137.0550  124.6040 O.2   151  LEU151     -0.2867
     36  CB        16.2100  135.4540  127.2530 C.3   151  LEU151      0.0270
     37  CG        16.2890  134.4050  128.3660 C.3   151  LEU151      0.0019
     38  CD1       16.2220  134.9970  129.7610 C.3   151  LEU151      0.0001
     39  CD2       15.2290  133.2810  128.1870 C.3   151  LEU151      0.0001
     40  N         13.8380  138.2080  124.3930 N.3   153  TYR153     -0.1227
     41  CA        13.3800  139.5790  124.6140 C.3   153  TYR153      0.1736
     42  C         14.4650  140.6070  124.9030 C.2   153  TYR153      0.2595
     43  O         14.1840  141.8000  124.8880 O.2   153  TYR153     -0.2718
     44  CB        12.3180  139.6270  125.7280 C.3   153  TYR153      0.0548
     45  CG        12.7500  139.0280  127.0470 C.ar  153  TYR153     -0.0200
     46  CD1       13.3770  139.8020  128.0230 C.ar  153  TYR153     -0.0009
     47  CD2       12.4900  137.6850  127.3330 C.ar  153  TYR153     -0.0009
     48  CE1       13.7650  139.2430  129.2350 C.ar  153  TYR153      0.0417
     49  CE2       12.8620  137.1260  128.5340 C.ar  153  TYR153      0.0417
     50  CZ        13.4950  137.9030  129.4820 C.ar  153  TYR153      0.1957
     51  OH        13.8460  137.3290  130.6770 O.3   153  TYR153     -0.2866
     52  N         15.6920  140.1570  125.1690 N.am  154  GLU154     -0.1979
     53  CA        16.7490  141.0900  125.6140 C.3   154  GLU154      0.1602
     54  C         18.0810  140.9660  124.8530 C.2   154  GLU154      0.2287
     55  O         19.1170  140.6600  125.4610 O.2   154  GLU154     -0.2864
     56  CB        16.9730  140.9790  127.1370 C.3   154  GLU154      0.0415
     57  CG        17.1740  139.5560  127.6830 C.3   154  GLU154      0.1163
     58  CD        17.3410  139.5100  129.2010 C.2   154  GLU154      0.3649
     59  OE1       17.3270  140.5660  129.8730 O.co2 154  GLU154     -0.2457
     60  OE2       17.5060  138.3780  129.7180 O.co2 154  GLU154     -0.2457
     61  N         21.1720  142.8930  126.3320 N.3   157  TYR157     -0.1241
     62  CA        21.7060  142.1850  127.4930 C.3   157  TYR157      0.1605
     63  C         22.4650  140.9350  127.0950 C.2   157  TYR157      0.2264
     64  O         23.5380  140.6530  127.6560 O.2   157  TYR157     -0.2867
     65  CB        20.5570  141.8130  128.4070 C.3   157  TYR157      0.0534
     66  CG        20.8450  141.0650  129.6820 C.ar  157  TYR157     -0.0201
     67  CD1       21.1230  141.7570  130.8740 C.ar  157  TYR157     -0.0009
     68  CD2       20.6750  139.6790  129.7430 C.ar  157  TYR157     -0.0009
     69  CE1       21.2920  141.0600  132.0970 C.ar  157  TYR157      0.0417
     70  CE2       20.8570  138.9900  130.9390 C.ar  157  TYR157      0.0417
     71  CZ        21.1510  139.6930  132.1090 C.ar  157  TYR157      0.1957
     72  OH        21.3040  139.0040  133.2830 O.3   157  TYR157     -0.2866
     73  N         24.3520  132.7540  136.2870 N.3   187  PRO187     -0.2102
     74  CA        23.1360  132.2690  136.9450 C.3   187  PRO187      0.1504
     75  C         21.9930  132.0710  136.0050 C.2   187  PRO187      0.2576
     76  O         21.9290  132.7390  134.9690 O.2   187  PRO187     -0.2718
     77  CB        22.7610  133.4040  137.9200 C.3   187  PRO187      0.0282
     78  CG        24.0980  134.1650  138.1150 C.3   187  PRO187      0.0208
     79  CD        24.6750  134.1290  136.7020 C.3   187  PRO187      0.0893
     80  N         21.1010  131.1500  136.3960 N.am  188  GLY188     -0.1943
     81  CA        19.7770  130.9560  135.7610 C.3   188  GLY188      0.2014
     82  C         18.7460  131.8540  136.4310 C.2   188  GLY188      0.2638
     83  O         19.0390  133.0000  136.7430 O.2   188  GLY188     -0.2714
     84  N         17.5340  131.3380  136.6470 N.am  189  LEU189     -0.1977
     85  CA        16.4510  132.1390  137.2330 C.3   189  LEU189      0.1596
     86  C         16.6760  132.3530  138.7210 C.2   189  LEU189      0.2287
     87  O         16.6230  131.4030  139.5010 O.2   189  LEU189     -0.2864
     88  CB        15.1140  131.4260  137.0000 C.3   189  LEU189      0.0297
     89  CG        14.8160  131.1290  135.5330 C.3   189  LEU189      0.0022
     90  CD1       13.5610  130.2020  135.4780 C.3   189  LEU189      0.0001
     91  CD2       14.5980  132.4440  134.7290 C.3   189  LEU189      0.0001
     92  N         14.6160  137.6770  142.3880 N.3   192  THR192     -0.1218
     93  CA        15.0300  138.9940  142.8440 C.3   192  THR192      0.1862
     94  C         13.8430  139.9510  142.7020 C.2   192  THR192      0.2287
     95  O         12.8360  139.5900  142.0570 O.2   192  THR192     -0.2866
     96  CB        16.2110  139.4700  141.9860 C.3   192  THR192      0.1770
     97  OG1       15.8560  139.3310  140.6030 O.3   192  THR192     -0.2211
     98  CG2       17.4270  138.6320  142.2650 C.3   192  THR192      0.0375
     99  N         13.0050  142.5410  140.8150 N.3   194  ASP194     -0.1225
    100  CA        12.4410  142.8590  139.4970 C.3   194  ASP194      0.1805
    101  C         11.5670  141.7290  138.8810 C.2   194  ASP194      0.2597
    102  O         10.6150  142.0110  138.1560 O.2   194  ASP194     -0.2718
    103  CB        13.5080  143.3500  138.5250 C.3   194  ASP194      0.1424
    104  CG        13.9960  144.7670  138.8590 C.2   194  ASP194      0.3668
    105  OD1       13.5760  145.3260  139.9030 O.co2 194  ASP194     -0.2456
    106  OD2       14.7720  145.3240  138.0620 O.co2 194  ASP194     -0.2456
    107  N         11.8600  140.4760  139.2150 N.am  195  TRP195     -0.1976
    108  CA        11.0240  139.3730  138.7680 C.3   195  TRP195      0.1640
    109  C          9.6360  139.5040  139.3570 C.2   195  TRP195      0.2290
    110  O          8.6360  139.2970  138.6560 O.2   195  TRP195     -0.2864
    111  CB        11.6220  138.0240  139.1680 C.3   195  TRP195      0.0576
    112  CG        12.6640  137.5370  138.2260 C.ar  195  TRP195      0.0006
    113  CD1       14.0150  137.4230  138.4650 C.ar  195  TRP195      0.0946
    114  CD2       12.4520  137.0680  136.8910 C.ar  195  TRP195      0.0152
    115  NE1       14.6500  136.9120  137.3530 N.ar  195  TRP195     -0.2442
    116  CE2       13.7170  136.6830  136.3750 C.ar  195  TRP195      0.0810
    117  CE3       11.3200  136.9370  136.0820 C.ar  195  TRP195      0.0012
    118  CZ2       13.8770  136.1850  135.0800 C.ar  195  TRP195      0.0191
    119  CZ3       11.4870  136.4420  134.7830 C.ar  195  TRP195      0.0001
    120  CH2       12.7500  136.0800  134.3020 C.ar  195  TRP195      0.0015
    121  N         18.7520  124.8820  133.4220 N.3   259  MET259     -0.1245
    122  CA        18.2520  125.7610  132.3400 C.3   259  MET259      0.1570
    123  C         19.0790  125.6970  131.0490 C.2   259  MET259      0.2261
    124  O         18.5280  125.7970  129.9520 O.2   259  MET259     -0.2867
    125  CB        18.1310  127.2210  132.8150 C.3   259  MET259      0.0387
    126  CG        17.5080  128.1680  131.7740 C.3   259  MET259      0.0595
    127  SD        17.1460  129.7070  132.6560 S.3   259  MET259     -0.1393
    128  CE        16.6870  130.7690  131.2780 C.3   259  MET259      0.0692
@<TRIPOS>BOND
     1    40    41    1
     2    35    34    2
     3    41    42    1
     4    41    44    1
     5    34    33    1
     6    54    55    2
     7    54    53    1
     8    43    42    2
     9    42    52   am
    10    52    53    1
    11    53    56    1
    12    32    33    1
    13    44    45    1
    14    33    36    1
    15    61    62    1
    16    29    28    2
    17    45    47   ar
    18    45    46   ar
    19    63    62    1
    20    63    64    2
    21    56    57    1
    22    36    37    1
    23    47    49   ar
    24    62    65    1
    25    57    58    1
    26    28    27    1
    27    46    48   ar
    28    39    37    1
    29    37    38    1
    30    65    66    1
    31    49    50   ar
    32    27    30    1
    33    27    26    1
    34    30    31    1
    35    21    20    2
    36    58    60   ar
    37    58    59   ar
    38    48    50   ar
    39    50    51    1
    40    66    68   ar
    41    66    67   ar
    42    68    70   ar
    43    26    20   am
    44   124   123    2
    45    20    19    1
    46    23    25    1
    47    23    22    1
    48    67    69   ar
    49    70    71   ar
    50   123   122    1
    51    10    11    2
    52    10     9    1
    53   128   127    1
    54    15    14    2
    55    19    22    1
    56    19    18    1
    57   126   127    1
    58   126   125    1
    59    22    24    1
    60    69    71   ar
    61    71    72    1
    62    17    16    1
    63     9     8    1
    64    14    18   am
    65    14    13    1
    66   122   125    1
    67   122   121    1
    68    16    13    1
    69     4     3    2
    70    13    12    1
    71     8     3   am
    72     3     2    1
    73     7     5    1
    74   120   119   ar
    75   120   118   ar
    76    91    89    1
    77   119   117   ar
    78     2     1    1
    79     2     5    1
    80    76    75    2
    81   118   116   ar
    82     5     6    1
    83    90    89    1
    84    89    88    1
    85    81    80    1
    86    81    82    1
    87    75    80   am
    88    75    74    1
    89   117   114   ar
    90    73    79    1
    91    73    74    1
    92   116   114   ar
    93   116   115   ar
    94    82    84   am
    95    82    83    2
    96    84    85    1
    97    79    78    1
    98   114   112   ar
    99    74    77    1
   100    88    85    1
   101    85    86    1
   102   115   113   ar
   103    77    78    1
   104   106   104   ar
   105   102   101    2
   106   112   113   ar
   107   112   111    1
   108   103   104    1
   109   103   100    1
   110   110   109    2
   111    86    87    2
   112   108   111    1
   113   108   107    1
   114   108   109    1
   115   104   105   ar
   116   101   107   am
   117   101   100    1
   118   100    99    1
   119    97    96    1
   120    96    98    1
   121    96    93    1
   122    95    94    2
   123    92    93    1
   124    94    93    1
