@<TRIPOS>MOLECULE
tmp/3ai8B00.pdb
 105 104 0 0 0
SMALL
GASTEIGER

@<TRIPOS>ATOM
      1  N        -12.4640   -4.5220    5.9440 N.3    25  GLN25      -0.1231
      2  CA       -12.1870   -5.8010    6.5960 C.3    25  GLN25       0.1698
      3  C        -10.9130   -5.7650    7.4310 C.2    25  GLN25       0.2593
      4  O        -10.5730   -6.7620    8.0840 O.2    25  GLN25      -0.2718
      5  CB       -12.1350   -6.9760    5.5670 C.3    25  GLN25       0.0381
      6  CG       -10.8010   -7.1270    4.8730 C.3    25  GLN25       0.0905
      7  CD       -10.8780   -7.7780    3.5080 C.2    25  GLN25       0.2608
      8  OE1      -11.6680   -7.4240    2.6840 O.2    25  GLN25      -0.2717
      9  NE2      -10.0430   -8.7660    3.2980 N.am   25  GLN25      -0.0878
     10  N        -10.1600   -4.6700    7.3400 N.am   26  GLY26      -0.1942
     11  CA        -8.9390   -4.5800    8.1120 C.3    26  GLY26       0.2014
     12  C         -7.8380   -5.5140    7.5700 C.2    26  GLY26       0.2640
     13  O         -7.8820   -5.9310    6.4350 O.2    26  GLY26      -0.2714
     14  N         -6.8310   -5.8000    8.3890 N.am   27  SER27      -0.1935
     15  CA        -5.7190   -6.6800    7.9870 C.3    27  SER27       0.2055
     16  C         -6.2120   -8.0520    8.3360 C.2    27  SER27       0.2643
     17  O         -5.8210   -8.6060    9.3340 O.2    27  SER27      -0.2714
     18  CB        -4.4760   -6.3520    8.8200 C.3    27  SER27       0.2130
     19  OG        -4.1100   -5.0020    8.5180 O.3    27  SER27      -0.2179
     20  N         -7.1280   -8.5590    7.5430 N.am   28  CYS28      -0.1953
     21  CA        -7.7670   -9.8390    7.8470 C.3    28  CYS28       0.1843
     22  C         -8.4170  -10.2530    6.5530 C.2    28  CYS28       0.2626
     23  O         -8.9760   -9.4190    5.8750 O.2    28  CYS28      -0.2714
     24  CB        -8.8430   -9.6120    8.9340 C.3    28  CYS28       0.0997
     25  SG        -9.9440  -11.0250    9.2670 S.3    28  CYS28      -0.0797
     26  N         -8.2360  -11.5170    6.1690 N.am   29  GLY29      -0.1954
     27  CA        -8.8400  -12.0590    4.9670 C.3    29  GLY29       0.1869
     28  C        -10.2870  -12.3810    5.3390 C.2    29  GLY29       0.2309
     29  O        -10.7090  -13.5460    5.2780 O.2    29  GLY29      -0.2863
     30  N        -12.9510  -11.0190    3.7620 N.3    31  CYS31      -0.1235
     31  CA       -13.8100  -10.6550    2.6370 C.3    31  CYS31       0.1677
     32  C        -15.0450  -11.5560    2.5880 C.2    31  CYS31       0.2270
     33  O        -16.1400  -11.0650    2.4000 O.2    31  CYS31      -0.2867
     34  CB       -13.0360  -10.7150    1.2970 C.3    31  CYS31       0.0956
     35  SG       -12.0410  -12.2130    1.0170 S.3    31  CYS31      -0.0801
     36  N         -5.6730   -0.1190    1.7830 N.3   112  HIS112     -0.1226
     37  CA        -5.6130   -1.2470    0.8900 C.3   112  HIS112      0.1752
     38  C         -5.0800   -0.8530   -0.4960 C.2   112  HIS112      0.2596
     39  O         -5.8470   -0.5610   -1.4450 O.2   112  HIS112     -0.2718
     40  CB        -7.0010   -1.9650    0.7580 C.3   112  HIS112      0.0759
     41  CG        -7.5850   -2.4370    2.0700 C.ar  112  HIS112      0.0818
     42  ND1       -7.7230   -3.7680    2.3810 N.ar  112  HIS112     -0.2268
     43  CD2       -7.9450   -1.7620    3.1940 C.ar  112  HIS112      0.1154
     44  CE1       -8.0840   -3.9060    3.6470 C.ar  112  HIS112      0.1986
     45  NE2       -8.2390   -2.6960    4.1640 N.ar  112  HIS112     -0.2212
     46  N         -3.7930   -0.8930   -0.6350 N.am  113  HIS113     -0.1975
     47  CA        -3.2300   -0.5800   -1.9240 C.3   113  HIS113      0.1656
     48  C         -3.4980    0.8640   -2.4010 C.2   113  HIS113      0.2291
     49  O         -3.7800    1.0650   -3.5600 O.2   113  HIS113     -0.2864
     50  CB        -3.8100   -1.5640   -2.9400 C.3   113  HIS113      0.0771
     51  CG        -3.7120   -2.9740   -2.5140 C.ar  113  HIS113      0.0820
     52  ND1       -2.5120   -3.5560   -2.1690 N.ar  113  HIS113     -0.2267
     53  CD2       -4.6340   -3.9450   -2.4090 C.ar  113  HIS113      0.1154
     54  CE1       -2.7040   -4.8150   -1.8590 C.ar  113  HIS113      0.1986
     55  NE2       -3.9730   -5.0790   -2.0110 N.ar  113  HIS113     -0.2212
     56  N         -2.4620   -1.8100    5.2280 N.3   121  CYS121     -0.1221
     57  CA        -2.9150   -3.1370    5.7450 C.3   121  CYS121      0.1808
     58  C         -1.7070   -4.1120    5.8650 C.2   121  CYS121      0.2602
     59  O         -0.8160   -3.9800    5.0960 O.2   121  CYS121     -0.2717
     60  CB        -3.9940   -3.7130    4.8410 C.3   121  CYS121      0.0970
     61  SG        -5.4230   -2.6040    4.7890 S.3   121  CYS121     -0.0800
     62  N         -1.5930   -4.8900    6.9470 N.am  122  THR122     -0.1939
     63  CA        -0.5150   -5.8370    7.0850 C.3   122  THR122      0.2028
     64  C         -1.0870   -7.2040    6.6420 C.2   122  THR122      0.2643
     65  O         -2.1630   -7.2490    6.0600 O.2   122  THR122     -0.2714
     66  CB         0.1400   -5.7030    8.4960 C.3   122  THR122      0.1808
     67  OG1       -0.7980   -5.9500    9.5470 O.3   122  THR122     -0.2208
     68  CG2        0.6060   -4.2490    8.6820 C.3   122  THR122      0.0379
     69  N         -0.3970   -8.3120    6.8060 N.am  123  GLY123     -0.1939
     70  CA        -1.0150   -9.5430    6.3060 C.3   123  GLY123      0.2014
     71  C         -2.3600   -9.8730    6.9540 C.2   123  GLY123      0.2638
     72  O         -3.0950   -8.9910    7.4010 O.2   123  GLY123     -0.2714
     73  N         -2.7580  -11.1300    6.8500 N.am  124  GLU124     -0.1977
     74  CA        -3.9290  -11.5940    7.5470 C.3   124  GLU124      0.1602
     75  C         -3.4880  -11.8150    9.0020 C.2   124  GLU124      0.2287
     76  O         -2.6010  -12.6000    9.2920 O.2   124  GLU124     -0.2864
     77  CB        -4.4120  -12.9070    6.9480 C.3   124  GLU124      0.0415
     78  CG        -4.5360  -12.8480    5.4540 C.3   124  GLU124      0.1163
     79  CD        -4.8070  -14.2050    4.8480 C.2   124  GLU124      0.3649
     80  OE1       -4.2340  -15.2090    5.3410 O.co2 124  GLU124     -0.2457
     81  OE2       -5.6070  -14.2650    3.8890 O.co2 124  GLU124     -0.2457
     82  N        -11.5170  -13.3440   -4.4200 N.3   201  HIS201     -0.1241
     83  CA       -11.9900  -12.2750   -3.5070 C.3   201  HIS201      0.1621
     84  C        -13.4960  -12.2200   -3.5020 C.2   201  HIS201      0.2264
     85  O        -14.1000  -12.2090   -4.5530 O.2   201  HIS201     -0.2867
     86  CB       -11.4020  -10.9120   -3.8990 C.3   201  HIS201      0.0745
     87  CG       -11.4310   -9.8860   -2.8090 C.ar  201  HIS201      0.0817
     88  ND1      -10.8090  -10.0600   -1.5950 N.ar  201  HIS201     -0.2268
     89  CD2      -12.0790   -8.7110   -2.7220 C.ar  201  HIS201      0.1154
     90  CE1      -11.0730   -9.0460   -0.8050 C.ar  201  HIS201      0.1986
     91  NE2      -11.8410   -8.2150   -1.4690 N.ar  201  HIS201     -0.2212
     92  N        -12.7120   -2.7630    1.2920 N.3   223  TRP223     -0.1241
     93  CA       -11.4030   -2.2000    1.5490 C.3   223  TRP223      0.1605
     94  C        -11.4510   -0.7010    1.8800 C.2   223  TRP223      0.2264
     95  O        -10.4740   -0.0030    1.6300 O.2   223  TRP223     -0.2867
     96  CB       -10.5170   -2.4000    0.3180 C.3   223  TRP223      0.0550
     97  CG       -10.0880   -3.8060    0.1180 C.ar  223  TRP223      0.0003
     98  CD1      -10.3240   -4.9070    0.9430 C.ar  223  TRP223      0.0946
     99  CD2       -9.3850   -4.2760   -1.0070 C.ar  223  TRP223      0.0152
    100  NE1       -9.7910   -6.0390    0.3530 N.ar  223  TRP223     -0.2442
    101  CE2       -9.2230   -5.6700   -0.8540 C.ar  223  TRP223      0.0810
    102  CE3       -8.8880   -3.6470   -2.1680 C.ar  223  TRP223      0.0012
    103  CZ2       -8.5870   -6.4370   -1.8290 C.ar  223  TRP223      0.0191
    104  CZ3       -8.2750   -4.3980   -3.1110 C.ar  223  TRP223      0.0001
    105  CH2       -8.1250   -5.7870   -2.9410 C.ar  223  TRP223      0.0015
@<TRIPOS>BOND
     1    85    84    2
     2    82    83    1
     3    86    83    1
     4    86    87    1
     5    49    48    2
     6    83    84    1
     7   104   105   ar
     8   104   102   ar
     9   105   103   ar
    10    50    51    1
    11    50    47    1
    12    87    89   ar
    13    87    88   ar
    14    89    91   ar
    15    51    53   ar
    16    51    52   ar
    17    53    55   ar
    18    48    47    1
    19    52    54   ar
    20   102    99   ar
    21    55    54   ar
    22    47    46    1
    23   103   101   ar
    24    88    90   ar
    25    91    90   ar
    26    39    38    2
    27    99   101   ar
    28    99    97   ar
    29   101   100   ar
    30    46    38   am
    31    38    37    1
    32    97    96    1
    33    97    98   ar
    34    96    93    1
    35   100    98   ar
    36    40    37    1
    37    40    41    1
    38    37    36    1
    39    35    34    1
    40    92    93    1
    41    34    31    1
    42    93    94    1
    43    95    94    2
    44    41    42   ar
    45    41    43   ar
    46    42    44   ar
    47    33    32    2
    48    32    31    1
    49    31    30    1
    50     8     7    2
    51    43    45   ar
    52     9     7   am
    53     7     6    1
    54    44    45   ar
    55    81    79   ar
    56    61    60    1
    57    60    57    1
    58    79    80   ar
    59    79    78    1
    60     6     5    1
    61    27    28    1
    62    27    26    1
    63    59    58    2
    64    56    57    1
    65    29    28    2
    66    78    77    1
    67     5     2    1
    68    57    58    1
    69    58    62   am
    70    23    22    2
    71     1     2    1
    72    65    64    2
    73    26    22   am
    74    70    69    1
    75    70    71    1
    76    13    12    2
    77    22    21    1
    78     2     3    1
    79    64    69   am
    80    64    63    1
    81    73    71   am
    82    73    74    1
    83    62    63    1
    84    77    74    1
    85    71    72    2
    86    63    66    1
    87    10     3   am
    88    10    11    1
    89     3     4    2
    90    20    21    1
    91    20    16   am
    92    74    75    1
    93    12    11    1
    94    12    14   am
    95    21    24    1
    96    15    16    1
    97    15    14    1
    98    15    18    1
    99    16    17    2
   100    66    68    1
   101    66    67    1
   102    19    18    1
   103    24    25    1
   104    75    76    2
